BEGIN Configuration File: examples/ericsson
// Topology
topology = mesh;
k = 4;
n = 2;

// Routing
routing_function = dor;

// Flow control
num_vcs     	= 16;
vc_buf_size 	= 16;

wait_for_tail_credit = 0;

// Router architecture
vc_allocator 	 = select;
sw_allocator 	 = separable_output_first;
alloc_iters  	 = 10;
credit_delay   	 = 0;
routing_delay  	 = 1;
vc_alloc_delay 	 = 1;
sw_alloc_delay	 = 1;
st_final_delay 	 = 1;
input_speedup    = 1;
output_speedup   = 1;
internal_speedup = 1.0;

// Traffic
traffic          = {customizedpattern,customizedpattern,customizedpattern,customizedpattern,customizedpattern,customizedpattern,customizedpattern,customizedpattern,customizedpattern,customizedpattern,customizedpattern,customizedpattern,customizedpattern,customizedpattern,customizedpattern,customizedpattern,customizedpattern,customizedpattern,customizedpattern,customizedpattern,customizedpattern,customizedpattern,customizedpattern,customizedpattern,customizedpattern,customizedpattern,customizedpattern};

injection_process= {customizedinjectionprocess,customizedinjectionprocess,customizedinjectionprocess,customizedinjectionprocess,customizedinjectionprocess,customizedinjectionprocess,customizedinjectionprocess,customizedinjectionprocess,customizedinjectionprocess,customizedinjectionprocess,customizedinjectionprocess,customizedinjectionprocess,customizedinjectionprocess,customizedinjectionprocess,customizedinjectionprocess,customizedinjectionprocess,customizedinjectionprocess,customizedinjectionprocess,customizedinjectionprocess,customizedinjectionprocess,customizedinjectionprocess,customizedinjectionprocess,customizedinjectionprocess,customizedinjectionprocess,customizedinjectionprocess};

packet_size  	 = 1;
priority	 = class;
classes 	 = 26;
class_priority   = {4,4,4,4,3,2,2,2,9,9,9,1,1,7,8,8,8,5,6,8,7,8,7,8,7,6};


// Simulation
sim_type       	 = latency;

//injection rate here is packet per cycle, NOT flit per cycle
injection_rate 	 = {0.00390625,0.00390625,0.00390625,0.00390625,0.001953125,0.125,0.125,0.125,0.125,0.125,0.125,0.015625,0.015625,0.015625,0.015625,0.015625,0.015625,0.015625,0.0625,0.015625,0.015625,0.015625,0.015625,0.015625,0.015625,0.0625};


END Configuration File: examples/ericsson
Class 0:
Packet latency average = 17
	minimum = 17
	maximum = 17
Network latency average = 17
	minimum = 17
	maximum = 17
Slowest packet = 0
Flit latency average = 17
	minimum = 17
	maximum = 17
Slowest flit = 0
Fragmentation average = 0
	minimum = 0
	maximum = 0
Injected packet rate average = 0.00025
	minimum = 0 (at node 0)
	maximum = 0.004 (at node 1)
Accepted packet rate average = 0.00025
	minimum = 0 (at node 0)
	maximum = 0.004 (at node 3)
Injected flit rate average = 0.00025
	minimum = 0 (at node 0)
	maximum = 0.004 (at node 1)
Accepted flit rate average= 0.00025
	minimum = 0 (at node 0)
	maximum = 0.004 (at node 3)
Injected packet length average = 1
Accepted packet length average = 1
Total in-flight flits = 0 (0 measured)
Class 1:
Packet latency average = 12
	minimum = 12
	maximum = 12
Network latency average = 12
	minimum = 12
	maximum = 12
Slowest packet = 1
Flit latency average = 12
	minimum = 12
	maximum = 12
Slowest flit = 1
Fragmentation average = 0
	minimum = 0
	maximum = 0
Injected packet rate average = 0.00025
	minimum = 0 (at node 0)
	maximum = 0.004 (at node 2)
Accepted packet rate average = 0.00025
	minimum = 0 (at node 0)
	maximum = 0.004 (at node 3)
Injected flit rate average = 0.00025
	minimum = 0 (at node 0)
	maximum = 0.004 (at node 2)
Accepted flit rate average= 0.00025
	minimum = 0 (at node 0)
	maximum = 0.004 (at node 3)
Injected packet length average = 1
Accepted packet length average = 1
Total in-flight flits = 0 (0 measured)
Class 2:
Packet latency average = 17
	minimum = 17
	maximum = 17
Network latency average = 17
	minimum = 17
	maximum = 17
Slowest packet = 2
Flit latency average = 17
	minimum = 17
	maximum = 17
Slowest flit = 2
Fragmentation average = 0
	minimum = 0
	maximum = 0
Injected packet rate average = 0.00025
	minimum = 0 (at node 0)
	maximum = 0.004 (at node 3)
Accepted packet rate average = 0.00025
	minimum = 0 (at node 0)
	maximum = 0.004 (at node 1)
Injected flit rate average = 0.00025
	minimum = 0 (at node 0)
	maximum = 0.004 (at node 3)
Accepted flit rate average= 0.00025
	minimum = 0 (at node 0)
	maximum = 0.004 (at node 1)
Injected packet length average = 1
Accepted packet length average = 1
Total in-flight flits = 0 (0 measured)
Class 3:
Packet latency average = 15
	minimum = 15
	maximum = 15
Network latency average = 14
	minimum = 14
	maximum = 14
Slowest packet = 3
Flit latency average = 14
	minimum = 14
	maximum = 14
Slowest flit = 3
Fragmentation average = 0
	minimum = 0
	maximum = 0
Injected packet rate average = 0.00025
	minimum = 0 (at node 0)
	maximum = 0.004 (at node 3)
Accepted packet rate average = 0.00025
	minimum = 0 (at node 0)
	maximum = 0.004 (at node 2)
Injected flit rate average = 0.00025
	minimum = 0 (at node 0)
	maximum = 0.004 (at node 3)
Accepted flit rate average= 0.00025
	minimum = 0 (at node 0)
	maximum = 0.004 (at node 2)
Injected packet length average = 1
Accepted packet length average = 1
Total in-flight flits = 0 (0 measured)
Class 4:
Packet latency average = 16
	minimum = 14
	maximum = 18
Network latency average = 14
	minimum = 12
	maximum = 16
Slowest packet = 4
Flit latency average = 14
	minimum = 12
	maximum = 16
Slowest flit = 4
Fragmentation average = 0
	minimum = 0
	maximum = 0
Injected packet rate average = 0.000125
	minimum = 0 (at node 0)
	maximum = 0.002 (at node 3)
Accepted packet rate average = 0.000125
	minimum = 0 (at node 0)
	maximum = 0.002 (at node 7)
Injected flit rate average = 0.000125
	minimum = 0 (at node 0)
	maximum = 0.002 (at node 3)
Accepted flit rate average= 0.000125
	minimum = 0 (at node 0)
	maximum = 0.002 (at node 7)
Injected packet length average = 1
Accepted packet length average = 1
Total in-flight flits = 0 (0 measured)
Class 5:
Packet latency average = 26
	minimum = 26
	maximum = 26
Network latency average = 23
	minimum = 23
	maximum = 23
Slowest packet = 5
Flit latency average = 23
	minimum = 23
	maximum = 23
Slowest flit = 5
Fragmentation average = 0
	minimum = 0
	maximum = 0
Injected packet rate average = 0.0078125
	minimum = 0 (at node 0)
	maximum = 0.125 (at node 4)
Accepted packet rate average = 0.007625
	minimum = 0 (at node 0)
	maximum = 0.122 (at node 1)
Injected flit rate average = 0.0078125
	minimum = 0 (at node 0)
	maximum = 0.125 (at node 4)
Accepted flit rate average= 0.007625
	minimum = 0 (at node 0)
	maximum = 0.122 (at node 1)
Injected packet length average = 1
Accepted packet length average = 1
Total in-flight flits = 3 (0 measured)
Class 6:
Packet latency average = 34
	minimum = 34
	maximum = 34
Network latency average = 30
	minimum = 30
	maximum = 30
Slowest packet = 6
Flit latency average = 30
	minimum = 30
	maximum = 30
Slowest flit = 6
Fragmentation average = 0
	minimum = 0
	maximum = 0
Injected packet rate average = 0.0078125
	minimum = 0 (at node 0)
	maximum = 0.125 (at node 4)
Accepted packet rate average = 0.0075625
	minimum = 0 (at node 0)
	maximum = 0.121 (at node 2)
Injected flit rate average = 0.0078125
	minimum = 0 (at node 0)
	maximum = 0.125 (at node 4)
Accepted flit rate average= 0.0075625
	minimum = 0 (at node 0)
	maximum = 0.121 (at node 2)
Injected packet length average = 1
Accepted packet length average = 1
Total in-flight flits = 4 (0 measured)
Class 7:
Packet latency average = 27
	minimum = 27
	maximum = 27
Network latency average = 22
	minimum = 22
	maximum = 22
Slowest packet = 7
Flit latency average = 22
	minimum = 22
	maximum = 22
Slowest flit = 7
Fragmentation average = 0
	minimum = 0
	maximum = 0
Injected packet rate average = 0.0078125
	minimum = 0 (at node 0)
	maximum = 0.125 (at node 4)
Accepted packet rate average = 0.007625
	minimum = 0 (at node 0)
	maximum = 0.122 (at node 5)
Injected flit rate average = 0.0078125
	minimum = 0 (at node 0)
	maximum = 0.125 (at node 4)
Accepted flit rate average= 0.007625
	minimum = 0 (at node 0)
	maximum = 0.122 (at node 5)
Injected packet length average = 1
Accepted packet length average = 1
Total in-flight flits = 3 (0 measured)
Class 8:
Packet latency average = 12
	minimum = 12
	maximum = 12
Network latency average = 12
	minimum = 12
	maximum = 12
Slowest packet = 8
Flit latency average = 12
	minimum = 12
	maximum = 12
Slowest flit = 8
Fragmentation average = 0
	minimum = 0
	maximum = 0
Injected packet rate average = 0.0078125
	minimum = 0 (at node 0)
	maximum = 0.125 (at node 4)
Accepted packet rate average = 0.00775
	minimum = 0 (at node 0)
	maximum = 0.124 (at node 8)
Injected flit rate average = 0.0078125
	minimum = 0 (at node 0)
	maximum = 0.125 (at node 4)
Accepted flit rate average= 0.00775
	minimum = 0 (at node 0)
	maximum = 0.124 (at node 8)
Injected packet length average = 1
Accepted packet length average = 1
Total in-flight flits = 1 (0 measured)
Class 9:
Packet latency average = 20
	minimum = 20
	maximum = 20
Network latency average = 19
	minimum = 19
	maximum = 19
Slowest packet = 9
Flit latency average = 19
	minimum = 19
	maximum = 19
Slowest flit = 9
Fragmentation average = 0
	minimum = 0
	maximum = 0
Injected packet rate average = 0.0078125
	minimum = 0 (at node 0)
	maximum = 0.125 (at node 4)
Accepted packet rate average = 0.0076875
	minimum = 0 (at node 0)
	maximum = 0.123 (at node 9)
Injected flit rate average = 0.0078125
	minimum = 0 (at node 0)
	maximum = 0.125 (at node 4)
Accepted flit rate average= 0.0076875
	minimum = 0 (at node 0)
	maximum = 0.123 (at node 9)
Injected packet length average = 1
Accepted packet length average = 1
Total in-flight flits = 2 (0 measured)
Class 10:
Packet latency average = 28
	minimum = 28
	maximum = 28
Network latency average = 26
	minimum = 26
	maximum = 26
Slowest packet = 10
Flit latency average = 26
	minimum = 26
	maximum = 26
Slowest flit = 10
Fragmentation average = 0
	minimum = 0
	maximum = 0
Injected packet rate average = 0.0078125
	minimum = 0 (at node 0)
	maximum = 0.125 (at node 4)
Accepted packet rate average = 0.007625
	minimum = 0 (at node 0)
	maximum = 0.122 (at node 10)
Injected flit rate average = 0.0078125
	minimum = 0 (at node 0)
	maximum = 0.125 (at node 4)
Accepted flit rate average= 0.007625
	minimum = 0 (at node 0)
	maximum = 0.122 (at node 10)
Injected packet length average = 1
Accepted packet length average = 1
Total in-flight flits = 3 (0 measured)
Class 11:
Packet latency average = 12
	minimum = 12
	maximum = 12
Network latency average = 12
	minimum = 12
	maximum = 12
Slowest packet = 11
Flit latency average = 12
	minimum = 12
	maximum = 12
Slowest flit = 11
Fragmentation average = 0
	minimum = 0
	maximum = 0
Injected packet rate average = 0.001
	minimum = 0 (at node 0)
	maximum = 0.016 (at node 5)
Accepted packet rate average = 0.001
	minimum = 0 (at node 0)
	maximum = 0.016 (at node 6)
Injected flit rate average = 0.001
	minimum = 0 (at node 0)
	maximum = 0.016 (at node 5)
Accepted flit rate average= 0.001
	minimum = 0 (at node 0)
	maximum = 0.016 (at node 6)
Injected packet length average = 1
Accepted packet length average = 1
Total in-flight flits = 0 (0 measured)
Class 12:
Packet latency average = 15
	minimum = 15
	maximum = 15
Network latency average = 14
	minimum = 14
	maximum = 14
Slowest packet = 12
Flit latency average = 14
	minimum = 14
	maximum = 14
Slowest flit = 12
Fragmentation average = 0
	minimum = 0
	maximum = 0
Injected packet rate average = 0.001
	minimum = 0 (at node 0)
	maximum = 0.016 (at node 6)
Accepted packet rate average = 0.001
	minimum = 0 (at node 0)
	maximum = 0.016 (at node 5)
Injected flit rate average = 0.001
	minimum = 0 (at node 0)
	maximum = 0.016 (at node 6)
Accepted flit rate average= 0.001
	minimum = 0 (at node 0)
	maximum = 0.016 (at node 5)
Injected packet length average = 1
Accepted packet length average = 1
Total in-flight flits = 0 (0 measured)
Class 13:
Packet latency average = 22
	minimum = 22
	maximum = 22
Network latency average = 22
	minimum = 22
	maximum = 22
Slowest packet = 13
Flit latency average = 22
	minimum = 22
	maximum = 22
Slowest flit = 13
Fragmentation average = 0
	minimum = 0
	maximum = 0
Injected packet rate average = 0.001
	minimum = 0 (at node 0)
	maximum = 0.016 (at node 6)
Accepted packet rate average = 0.001
	minimum = 0 (at node 0)
	maximum = 0.016 (at node 15)
Injected flit rate average = 0.001
	minimum = 0 (at node 0)
	maximum = 0.016 (at node 6)
Accepted flit rate average= 0.001
	minimum = 0 (at node 0)
	maximum = 0.016 (at node 15)
Injected packet length average = 1
Accepted packet length average = 1
Total in-flight flits = 0 (0 measured)
Class 14:
Packet latency average = 12
	minimum = 12
	maximum = 12
Network latency average = 12
	minimum = 12
	maximum = 12
Slowest packet = 14
Flit latency average = 12
	minimum = 12
	maximum = 12
Slowest flit = 14
Fragmentation average = 0
	minimum = 0
	maximum = 0
Injected packet rate average = 0.001
	minimum = 0 (at node 0)
	maximum = 0.016 (at node 8)
Accepted packet rate average = 0.001
	minimum = 0 (at node 0)
	maximum = 0.016 (at node 12)
Injected flit rate average = 0.001
	minimum = 0 (at node 0)
	maximum = 0.016 (at node 8)
Accepted flit rate average= 0.001
	minimum = 0 (at node 0)
	maximum = 0.016 (at node 12)
Injected packet length average = 1
Accepted packet length average = 1
Total in-flight flits = 0 (0 measured)
Class 15:
Packet latency average = 12
	minimum = 12
	maximum = 12
Network latency average = 12
	minimum = 12
	maximum = 12
Slowest packet = 15
Flit latency average = 12
	minimum = 12
	maximum = 12
Slowest flit = 15
Fragmentation average = 0
	minimum = 0
	maximum = 0
Injected packet rate average = 0.001
	minimum = 0 (at node 0)
	maximum = 0.016 (at node 9)
Accepted packet rate average = 0.001
	minimum = 0 (at node 0)
	maximum = 0.016 (at node 13)
Injected flit rate average = 0.001
	minimum = 0 (at node 0)
	maximum = 0.016 (at node 9)
Accepted flit rate average= 0.001
	minimum = 0 (at node 0)
	maximum = 0.016 (at node 13)
Injected packet length average = 1
Accepted packet length average = 1
Total in-flight flits = 0 (0 measured)
Class 16:
Packet latency average = 12
	minimum = 12
	maximum = 12
Network latency average = 12
	minimum = 12
	maximum = 12
Slowest packet = 16
Flit latency average = 12
	minimum = 12
	maximum = 12
Slowest flit = 16
Fragmentation average = 0
	minimum = 0
	maximum = 0
Injected packet rate average = 0.001
	minimum = 0 (at node 0)
	maximum = 0.016 (at node 10)
Accepted packet rate average = 0.001
	minimum = 0 (at node 0)
	maximum = 0.016 (at node 14)
Injected flit rate average = 0.001
	minimum = 0 (at node 0)
	maximum = 0.016 (at node 10)
Accepted flit rate average= 0.001
	minimum = 0 (at node 0)
	maximum = 0.016 (at node 14)
Injected packet length average = 1
Accepted packet length average = 1
Total in-flight flits = 0 (0 measured)
Class 17:
Packet latency average = 13.125
	minimum = 13
	maximum = 15
Network latency average = 12.125
	minimum = 12
	maximum = 14
Slowest packet = 17
Flit latency average = 12.125
	minimum = 12
	maximum = 14
Slowest flit = 17
Fragmentation average = 0
	minimum = 0
	maximum = 0
Injected packet rate average = 0.001
	minimum = 0 (at node 0)
	maximum = 0.016 (at node 11)
Accepted packet rate average = 0.001
	minimum = 0 (at node 0)
	maximum = 0.016 (at node 7)
Injected flit rate average = 0.001
	minimum = 0 (at node 0)
	maximum = 0.016 (at node 11)
Accepted flit rate average= 0.001
	minimum = 0 (at node 0)
	maximum = 0.016 (at node 7)
Injected packet length average = 1
Accepted packet length average = 1
Total in-flight flits = 0 (0 measured)
Class 18:
Packet latency average = 12
	minimum = 12
	maximum = 12
Network latency average = 12
	minimum = 12
	maximum = 12
Slowest packet = 18
Flit latency average = 12
	minimum = 12
	maximum = 12
Slowest flit = 18
Fragmentation average = 0
	minimum = 0
	maximum = 0
Injected packet rate average = 0.0039375
	minimum = 0 (at node 0)
	maximum = 0.063 (at node 11)
Accepted packet rate average = 0.003875
	minimum = 0 (at node 0)
	maximum = 0.062 (at node 15)
Injected flit rate average = 0.0039375
	minimum = 0 (at node 0)
	maximum = 0.063 (at node 11)
Accepted flit rate average= 0.003875
	minimum = 0 (at node 0)
	maximum = 0.062 (at node 15)
Injected packet length average = 1
Accepted packet length average = 1
Total in-flight flits = 1 (0 measured)
Class 19:
Packet latency average = 13
	minimum = 13
	maximum = 13
Network latency average = 13
	minimum = 13
	maximum = 13
Slowest packet = 19
Flit latency average = 13
	minimum = 13
	maximum = 13
Slowest flit = 19
Fragmentation average = 0
	minimum = 0
	maximum = 0
Injected packet rate average = 0.001
	minimum = 0 (at node 0)
	maximum = 0.016 (at node 12)
Accepted packet rate average = 0.001
	minimum = 0 (at node 0)
	maximum = 0.016 (at node 8)
Injected flit rate average = 0.001
	minimum = 0 (at node 0)
	maximum = 0.016 (at node 12)
Accepted flit rate average= 0.001
	minimum = 0 (at node 0)
	maximum = 0.016 (at node 8)
Injected packet length average = 1
Accepted packet length average = 1
Total in-flight flits = 0 (0 measured)
Class 20:
Packet latency average = 25
	minimum = 25
	maximum = 25
Network latency average = 24
	minimum = 24
	maximum = 24
Slowest packet = 20
Flit latency average = 24
	minimum = 24
	maximum = 24
Slowest flit = 20
Fragmentation average = 0
	minimum = 0
	maximum = 0
Injected packet rate average = 0.001
	minimum = 0 (at node 0)
	maximum = 0.016 (at node 12)
Accepted packet rate average = 0.001
	minimum = 0 (at node 0)
	maximum = 0.016 (at node 15)
Injected flit rate average = 0.001
	minimum = 0 (at node 0)
	maximum = 0.016 (at node 12)
Accepted flit rate average= 0.001
	minimum = 0 (at node 0)
	maximum = 0.016 (at node 15)
Injected packet length average = 1
Accepted packet length average = 1
Total in-flight flits = 0 (0 measured)
Class 21:
Packet latency average = 12.9375
	minimum = 12
	maximum = 13
Network latency average = 12.9375
	minimum = 12
	maximum = 13
Slowest packet = 90
Flit latency average = 12.9375
	minimum = 12
	maximum = 13
Slowest flit = 90
Fragmentation average = 0
	minimum = 0
	maximum = 0
Injected packet rate average = 0.001
	minimum = 0 (at node 0)
	maximum = 0.016 (at node 13)
Accepted packet rate average = 0.001
	minimum = 0 (at node 0)
	maximum = 0.016 (at node 9)
Injected flit rate average = 0.001
	minimum = 0 (at node 0)
	maximum = 0.016 (at node 13)
Accepted flit rate average= 0.001
	minimum = 0 (at node 0)
	maximum = 0.016 (at node 9)
Injected packet length average = 1
Accepted packet length average = 1
Total in-flight flits = 0 (0 measured)
Class 22:
Packet latency average = 20
	minimum = 20
	maximum = 20
Network latency average = 19
	minimum = 19
	maximum = 19
Slowest packet = 22
Flit latency average = 19
	minimum = 19
	maximum = 19
Slowest flit = 22
Fragmentation average = 0
	minimum = 0
	maximum = 0
Injected packet rate average = 0.001
	minimum = 0 (at node 0)
	maximum = 0.016 (at node 13)
Accepted packet rate average = 0.001
	minimum = 0 (at node 0)
	maximum = 0.016 (at node 15)
Injected flit rate average = 0.001
	minimum = 0 (at node 0)
	maximum = 0.016 (at node 13)
Accepted flit rate average= 0.001
	minimum = 0 (at node 0)
	maximum = 0.016 (at node 15)
Injected packet length average = 1
Accepted packet length average = 1
Total in-flight flits = 0 (0 measured)
Class 23:
Packet latency average = 12.9375
	minimum = 12
	maximum = 13
Network latency average = 12.9375
	minimum = 12
	maximum = 13
Slowest packet = 92
Flit latency average = 12.9375
	minimum = 12
	maximum = 13
Slowest flit = 92
Fragmentation average = 0
	minimum = 0
	maximum = 0
Injected packet rate average = 0.001
	minimum = 0 (at node 0)
	maximum = 0.016 (at node 14)
Accepted packet rate average = 0.001
	minimum = 0 (at node 0)
	maximum = 0.016 (at node 10)
Injected flit rate average = 0.001
	minimum = 0 (at node 0)
	maximum = 0.016 (at node 14)
Accepted flit rate average= 0.001
	minimum = 0 (at node 0)
	maximum = 0.016 (at node 10)
Injected packet length average = 1
Accepted packet length average = 1
Total in-flight flits = 0 (0 measured)
Class 24:
Packet latency average = 15
	minimum = 15
	maximum = 15
Network latency average = 14
	minimum = 14
	maximum = 14
Slowest packet = 24
Flit latency average = 14
	minimum = 14
	maximum = 14
Slowest flit = 24
Fragmentation average = 0
	minimum = 0
	maximum = 0
Injected packet rate average = 0.001
	minimum = 0 (at node 0)
	maximum = 0.016 (at node 14)
Accepted packet rate average = 0.001
	minimum = 0 (at node 0)
	maximum = 0.016 (at node 15)
Injected flit rate average = 0.001
	minimum = 0 (at node 0)
	maximum = 0.016 (at node 14)
Accepted flit rate average= 0.001
	minimum = 0 (at node 0)
	maximum = 0.016 (at node 15)
Injected packet length average = 1
Accepted packet length average = 1
Total in-flight flits = 0 (0 measured)
Class 25:
Packet latency average = 12
	minimum = 12
	maximum = 12
Network latency average = 12
	minimum = 12
	maximum = 12
Slowest packet = 25
Flit latency average = 12
	minimum = 12
	maximum = 12
Slowest flit = 25
Fragmentation average = 0
	minimum = 0
	maximum = 0
Injected packet rate average = 0.0039375
	minimum = 0 (at node 0)
	maximum = 0.063 (at node 15)
Accepted packet rate average = 0.003875
	minimum = 0 (at node 0)
	maximum = 0.062 (at node 11)
Injected flit rate average = 0.0039375
	minimum = 0 (at node 0)
	maximum = 0.063 (at node 15)
Accepted flit rate average= 0.003875
	minimum = 0 (at node 0)
	maximum = 0.062 (at node 11)
Injected packet length average = 1
Accepted packet length average = 1
Total in-flight flits = 1 (0 measured)
latency change    = 1
throughput change = 1
latency change    = 1
throughput change = 1
latency change    = 1
throughput change = 1
latency change    = 1
throughput change = 1
latency change    = 1
throughput change = 1
latency change    = 1
throughput change = 1
latency change    = 1
throughput change = 1
latency change    = 1
throughput change = 1
latency change    = 1
throughput change = 1
latency change    = 1
throughput change = 1
latency change    = 1
throughput change = 1
latency change    = 1
throughput change = 1
latency change    = 1
throughput change = 1
latency change    = 1
throughput change = 1
latency change    = 1
throughput change = 1
latency change    = 1
throughput change = 1
latency change    = 1
throughput change = 1
latency change    = 1
throughput change = 1
latency change    = 1
throughput change = 1
latency change    = 1
throughput change = 1
latency change    = 1
throughput change = 1
latency change    = 1
throughput change = 1
latency change    = 1
throughput change = 1
latency change    = 1
throughput change = 1
latency change    = 1
throughput change = 1
latency change    = 1
throughput change = 1
Class 0:
Packet latency average = 17
	minimum = 17
	maximum = 17
Network latency average = 17
	minimum = 17
	maximum = 17
Slowest packet = 0
Flit latency average = 17
	minimum = 17
	maximum = 17
Slowest flit = 0
Fragmentation average = 0
	minimum = 0
	maximum = 0
Injected packet rate average = 0.00025
	minimum = 0 (at node 0)
	maximum = 0.004 (at node 1)
Accepted packet rate average = 0.00025
	minimum = 0 (at node 0)
	maximum = 0.004 (at node 3)
Injected flit rate average = 0.00025
	minimum = 0 (at node 0)
	maximum = 0.004 (at node 1)
Accepted flit rate average= 0.00025
	minimum = 0 (at node 0)
	maximum = 0.004 (at node 3)
Injected packet length average = 1
Accepted packet length average = 1
Total in-flight flits = 0 (0 measured)
Class 1:
Packet latency average = 12
	minimum = 12
	maximum = 12
Network latency average = 12
	minimum = 12
	maximum = 12
Slowest packet = 1
Flit latency average = 12
	minimum = 12
	maximum = 12
Slowest flit = 1
Fragmentation average = 0
	minimum = 0
	maximum = 0
Injected packet rate average = 0.00025
	minimum = 0 (at node 0)
	maximum = 0.004 (at node 2)
Accepted packet rate average = 0.00025
	minimum = 0 (at node 0)
	maximum = 0.004 (at node 3)
Injected flit rate average = 0.00025
	minimum = 0 (at node 0)
	maximum = 0.004 (at node 2)
Accepted flit rate average= 0.00025
	minimum = 0 (at node 0)
	maximum = 0.004 (at node 3)
Injected packet length average = 1
Accepted packet length average = 1
Total in-flight flits = 0 (0 measured)
Class 2:
Packet latency average = 17
	minimum = 17
	maximum = 17
Network latency average = 17
	minimum = 17
	maximum = 17
Slowest packet = 2
Flit latency average = 17
	minimum = 17
	maximum = 17
Slowest flit = 2
Fragmentation average = 0
	minimum = 0
	maximum = 0
Injected packet rate average = 0.00025
	minimum = 0 (at node 0)
	maximum = 0.004 (at node 3)
Accepted packet rate average = 0.00025
	minimum = 0 (at node 0)
	maximum = 0.004 (at node 1)
Injected flit rate average = 0.00025
	minimum = 0 (at node 0)
	maximum = 0.004 (at node 3)
Accepted flit rate average= 0.00025
	minimum = 0 (at node 0)
	maximum = 0.004 (at node 1)
Injected packet length average = 1
Accepted packet length average = 1
Total in-flight flits = 0 (0 measured)
Class 3:
Packet latency average = 15
	minimum = 15
	maximum = 15
Network latency average = 14
	minimum = 14
	maximum = 14
Slowest packet = 3
Flit latency average = 14
	minimum = 14
	maximum = 14
Slowest flit = 3
Fragmentation average = 0
	minimum = 0
	maximum = 0
Injected packet rate average = 0.00025
	minimum = 0 (at node 0)
	maximum = 0.004 (at node 3)
Accepted packet rate average = 0.00025
	minimum = 0 (at node 0)
	maximum = 0.004 (at node 2)
Injected flit rate average = 0.00025
	minimum = 0 (at node 0)
	maximum = 0.004 (at node 3)
Accepted flit rate average= 0.00025
	minimum = 0 (at node 0)
	maximum = 0.004 (at node 2)
Injected packet length average = 1
Accepted packet length average = 1
Total in-flight flits = 0 (0 measured)
Class 4:
Packet latency average = 15
	minimum = 14
	maximum = 18
Network latency average = 13
	minimum = 12
	maximum = 16
Slowest packet = 4
Flit latency average = 13
	minimum = 12
	maximum = 16
Slowest flit = 4
Fragmentation average = 0
	minimum = 0
	maximum = 0
Injected packet rate average = 0.000125
	minimum = 0 (at node 0)
	maximum = 0.002 (at node 3)
Accepted packet rate average = 0.000125
	minimum = 0 (at node 0)
	maximum = 0.002 (at node 7)
Injected flit rate average = 0.000125
	minimum = 0 (at node 0)
	maximum = 0.002 (at node 3)
Accepted flit rate average= 0.000125
	minimum = 0 (at node 0)
	maximum = 0.002 (at node 7)
Injected packet length average = 1
Accepted packet length average = 1
Total in-flight flits = 0 (0 measured)
Class 5:
Packet latency average = 26
	minimum = 26
	maximum = 26
Network latency average = 23
	minimum = 23
	maximum = 23
Slowest packet = 5
Flit latency average = 23
	minimum = 23
	maximum = 23
Slowest flit = 5
Fragmentation average = 0
	minimum = 0
	maximum = 0
Injected packet rate average = 0.0078125
	minimum = 0 (at node 0)
	maximum = 0.125 (at node 4)
Accepted packet rate average = 0.00771875
	minimum = 0 (at node 0)
	maximum = 0.1235 (at node 1)
Injected flit rate average = 0.0078125
	minimum = 0 (at node 0)
	maximum = 0.125 (at node 4)
Accepted flit rate average= 0.00771875
	minimum = 0 (at node 0)
	maximum = 0.1235 (at node 1)
Injected packet length average = 1
Accepted packet length average = 1
Total in-flight flits = 3 (0 measured)
Class 6:
Packet latency average = 34
	minimum = 34
	maximum = 34
Network latency average = 30
	minimum = 30
	maximum = 30
Slowest packet = 6
Flit latency average = 30
	minimum = 30
	maximum = 30
Slowest flit = 6
Fragmentation average = 0
	minimum = 0
	maximum = 0
Injected packet rate average = 0.0078125
	minimum = 0 (at node 0)
	maximum = 0.125 (at node 4)
Accepted packet rate average = 0.0076875
	minimum = 0 (at node 0)
	maximum = 0.123 (at node 2)
Injected flit rate average = 0.0078125
	minimum = 0 (at node 0)
	maximum = 0.125 (at node 4)
Accepted flit rate average= 0.0076875
	minimum = 0 (at node 0)
	maximum = 0.123 (at node 2)
Injected packet length average = 1
Accepted packet length average = 1
Total in-flight flits = 4 (0 measured)
Class 7:
Packet latency average = 27
	minimum = 27
	maximum = 27
Network latency average = 22
	minimum = 22
	maximum = 22
Slowest packet = 7
Flit latency average = 22
	minimum = 22
	maximum = 22
Slowest flit = 7
Fragmentation average = 0
	minimum = 0
	maximum = 0
Injected packet rate average = 0.0078125
	minimum = 0 (at node 0)
	maximum = 0.125 (at node 4)
Accepted packet rate average = 0.00771875
	minimum = 0 (at node 0)
	maximum = 0.1235 (at node 5)
Injected flit rate average = 0.0078125
	minimum = 0 (at node 0)
	maximum = 0.125 (at node 4)
Accepted flit rate average= 0.00771875
	minimum = 0 (at node 0)
	maximum = 0.1235 (at node 5)
Injected packet length average = 1
Accepted packet length average = 1
Total in-flight flits = 3 (0 measured)
Class 8:
Packet latency average = 12
	minimum = 12
	maximum = 12
Network latency average = 12
	minimum = 12
	maximum = 12
Slowest packet = 8
Flit latency average = 12
	minimum = 12
	maximum = 12
Slowest flit = 8
Fragmentation average = 0
	minimum = 0
	maximum = 0
Injected packet rate average = 0.0078125
	minimum = 0 (at node 0)
	maximum = 0.125 (at node 4)
Accepted packet rate average = 0.00778125
	minimum = 0 (at node 0)
	maximum = 0.1245 (at node 8)
Injected flit rate average = 0.0078125
	minimum = 0 (at node 0)
	maximum = 0.125 (at node 4)
Accepted flit rate average= 0.00778125
	minimum = 0 (at node 0)
	maximum = 0.1245 (at node 8)
Injected packet length average = 1
Accepted packet length average = 1
Total in-flight flits = 1 (0 measured)
Class 9:
Packet latency average = 20
	minimum = 20
	maximum = 20
Network latency average = 19
	minimum = 19
	maximum = 19
Slowest packet = 9
Flit latency average = 19
	minimum = 19
	maximum = 19
Slowest flit = 9
Fragmentation average = 0
	minimum = 0
	maximum = 0
Injected packet rate average = 0.0078125
	minimum = 0 (at node 0)
	maximum = 0.125 (at node 4)
Accepted packet rate average = 0.00775
	minimum = 0 (at node 0)
	maximum = 0.124 (at node 9)
Injected flit rate average = 0.0078125
	minimum = 0 (at node 0)
	maximum = 0.125 (at node 4)
Accepted flit rate average= 0.00775
	minimum = 0 (at node 0)
	maximum = 0.124 (at node 9)
Injected packet length average = 1
Accepted packet length average = 1
Total in-flight flits = 2 (0 measured)
Class 10:
Packet latency average = 28
	minimum = 28
	maximum = 28
Network latency average = 26
	minimum = 26
	maximum = 26
Slowest packet = 10
Flit latency average = 26
	minimum = 26
	maximum = 26
Slowest flit = 10
Fragmentation average = 0
	minimum = 0
	maximum = 0
Injected packet rate average = 0.0078125
	minimum = 0 (at node 0)
	maximum = 0.125 (at node 4)
Accepted packet rate average = 0.00771875
	minimum = 0 (at node 0)
	maximum = 0.1235 (at node 10)
Injected flit rate average = 0.0078125
	minimum = 0 (at node 0)
	maximum = 0.125 (at node 4)
Accepted flit rate average= 0.00771875
	minimum = 0 (at node 0)
	maximum = 0.1235 (at node 10)
Injected packet length average = 1
Accepted packet length average = 1
Total in-flight flits = 3 (0 measured)
Class 11:
Packet latency average = 12
	minimum = 12
	maximum = 12
Network latency average = 12
	minimum = 12
	maximum = 12
Slowest packet = 11
Flit latency average = 12
	minimum = 12
	maximum = 12
Slowest flit = 11
Fragmentation average = 0
	minimum = 0
	maximum = 0
Injected packet rate average = 0.001
	minimum = 0 (at node 0)
	maximum = 0.016 (at node 5)
Accepted packet rate average = 0.001
	minimum = 0 (at node 0)
	maximum = 0.016 (at node 6)
Injected flit rate average = 0.001
	minimum = 0 (at node 0)
	maximum = 0.016 (at node 5)
Accepted flit rate average= 0.001
	minimum = 0 (at node 0)
	maximum = 0.016 (at node 6)
Injected packet length average = 1
Accepted packet length average = 1
Total in-flight flits = 0 (0 measured)
Class 12:
Packet latency average = 15
	minimum = 15
	maximum = 15
Network latency average = 14
	minimum = 14
	maximum = 14
Slowest packet = 12
Flit latency average = 14
	minimum = 14
	maximum = 14
Slowest flit = 12
Fragmentation average = 0
	minimum = 0
	maximum = 0
Injected packet rate average = 0.001
	minimum = 0 (at node 0)
	maximum = 0.016 (at node 6)
Accepted packet rate average = 0.001
	minimum = 0 (at node 0)
	maximum = 0.016 (at node 5)
Injected flit rate average = 0.001
	minimum = 0 (at node 0)
	maximum = 0.016 (at node 6)
Accepted flit rate average= 0.001
	minimum = 0 (at node 0)
	maximum = 0.016 (at node 5)
Injected packet length average = 1
Accepted packet length average = 1
Total in-flight flits = 0 (0 measured)
Class 13:
Packet latency average = 22
	minimum = 22
	maximum = 22
Network latency average = 22
	minimum = 22
	maximum = 22
Slowest packet = 13
Flit latency average = 22
	minimum = 22
	maximum = 22
Slowest flit = 13
Fragmentation average = 0
	minimum = 0
	maximum = 0
Injected packet rate average = 0.001
	minimum = 0 (at node 0)
	maximum = 0.016 (at node 6)
Accepted packet rate average = 0.00096875
	minimum = 0 (at node 0)
	maximum = 0.0155 (at node 15)
Injected flit rate average = 0.001
	minimum = 0 (at node 0)
	maximum = 0.016 (at node 6)
Accepted flit rate average= 0.00096875
	minimum = 0 (at node 0)
	maximum = 0.0155 (at node 15)
Injected packet length average = 1
Accepted packet length average = 1
Total in-flight flits = 1 (0 measured)
Class 14:
Packet latency average = 12
	minimum = 12
	maximum = 12
Network latency average = 12
	minimum = 12
	maximum = 12
Slowest packet = 14
Flit latency average = 12
	minimum = 12
	maximum = 12
Slowest flit = 14
Fragmentation average = 0
	minimum = 0
	maximum = 0
Injected packet rate average = 0.001
	minimum = 0 (at node 0)
	maximum = 0.016 (at node 8)
Accepted packet rate average = 0.001
	minimum = 0 (at node 0)
	maximum = 0.016 (at node 12)
Injected flit rate average = 0.001
	minimum = 0 (at node 0)
	maximum = 0.016 (at node 8)
Accepted flit rate average= 0.001
	minimum = 0 (at node 0)
	maximum = 0.016 (at node 12)
Injected packet length average = 1
Accepted packet length average = 1
Total in-flight flits = 0 (0 measured)
Class 15:
Packet latency average = 12
	minimum = 12
	maximum = 12
Network latency average = 12
	minimum = 12
	maximum = 12
Slowest packet = 15
Flit latency average = 12
	minimum = 12
	maximum = 12
Slowest flit = 15
Fragmentation average = 0
	minimum = 0
	maximum = 0
Injected packet rate average = 0.001
	minimum = 0 (at node 0)
	maximum = 0.016 (at node 9)
Accepted packet rate average = 0.001
	minimum = 0 (at node 0)
	maximum = 0.016 (at node 13)
Injected flit rate average = 0.001
	minimum = 0 (at node 0)
	maximum = 0.016 (at node 9)
Accepted flit rate average= 0.001
	minimum = 0 (at node 0)
	maximum = 0.016 (at node 13)
Injected packet length average = 1
Accepted packet length average = 1
Total in-flight flits = 0 (0 measured)
Class 16:
Packet latency average = 12
	minimum = 12
	maximum = 12
Network latency average = 12
	minimum = 12
	maximum = 12
Slowest packet = 16
Flit latency average = 12
	minimum = 12
	maximum = 12
Slowest flit = 16
Fragmentation average = 0
	minimum = 0
	maximum = 0
Injected packet rate average = 0.001
	minimum = 0 (at node 0)
	maximum = 0.016 (at node 10)
Accepted packet rate average = 0.001
	minimum = 0 (at node 0)
	maximum = 0.016 (at node 14)
Injected flit rate average = 0.001
	minimum = 0 (at node 0)
	maximum = 0.016 (at node 10)
Accepted flit rate average= 0.001
	minimum = 0 (at node 0)
	maximum = 0.016 (at node 14)
Injected packet length average = 1
Accepted packet length average = 1
Total in-flight flits = 0 (0 measured)
Class 17:
Packet latency average = 13.125
	minimum = 13
	maximum = 15
Network latency average = 12.125
	minimum = 12
	maximum = 14
Slowest packet = 17
Flit latency average = 12.125
	minimum = 12
	maximum = 14
Slowest flit = 17
Fragmentation average = 0
	minimum = 0
	maximum = 0
Injected packet rate average = 0.001
	minimum = 0 (at node 0)
	maximum = 0.016 (at node 11)
Accepted packet rate average = 0.001
	minimum = 0 (at node 0)
	maximum = 0.016 (at node 7)
Injected flit rate average = 0.001
	minimum = 0 (at node 0)
	maximum = 0.016 (at node 11)
Accepted flit rate average= 0.001
	minimum = 0 (at node 0)
	maximum = 0.016 (at node 7)
Injected packet length average = 1
Accepted packet length average = 1
Total in-flight flits = 0 (0 measured)
Class 18:
Packet latency average = 12
	minimum = 12
	maximum = 12
Network latency average = 12
	minimum = 12
	maximum = 12
Slowest packet = 18
Flit latency average = 12
	minimum = 12
	maximum = 12
Slowest flit = 18
Fragmentation average = 0
	minimum = 0
	maximum = 0
Injected packet rate average = 0.00390625
	minimum = 0 (at node 0)
	maximum = 0.0625 (at node 11)
Accepted packet rate average = 0.00390625
	minimum = 0 (at node 0)
	maximum = 0.0625 (at node 15)
Injected flit rate average = 0.00390625
	minimum = 0 (at node 0)
	maximum = 0.0625 (at node 11)
Accepted flit rate average= 0.00390625
	minimum = 0 (at node 0)
	maximum = 0.0625 (at node 15)
Injected packet length average = 1
Accepted packet length average = 1
Total in-flight flits = 0 (0 measured)
Class 19:
Packet latency average = 13
	minimum = 13
	maximum = 13
Network latency average = 13
	minimum = 13
	maximum = 13
Slowest packet = 19
Flit latency average = 13
	minimum = 13
	maximum = 13
Slowest flit = 19
Fragmentation average = 0
	minimum = 0
	maximum = 0
Injected packet rate average = 0.001
	minimum = 0 (at node 0)
	maximum = 0.016 (at node 12)
Accepted packet rate average = 0.001
	minimum = 0 (at node 0)
	maximum = 0.016 (at node 8)
Injected flit rate average = 0.001
	minimum = 0 (at node 0)
	maximum = 0.016 (at node 12)
Accepted flit rate average= 0.001
	minimum = 0 (at node 0)
	maximum = 0.016 (at node 8)
Injected packet length average = 1
Accepted packet length average = 1
Total in-flight flits = 0 (0 measured)
Class 20:
Packet latency average = 25
	minimum = 25
	maximum = 25
Network latency average = 24
	minimum = 24
	maximum = 24
Slowest packet = 20
Flit latency average = 24
	minimum = 24
	maximum = 24
Slowest flit = 20
Fragmentation average = 0
	minimum = 0
	maximum = 0
Injected packet rate average = 0.001
	minimum = 0 (at node 0)
	maximum = 0.016 (at node 12)
Accepted packet rate average = 0.00096875
	minimum = 0 (at node 0)
	maximum = 0.0155 (at node 15)
Injected flit rate average = 0.001
	minimum = 0 (at node 0)
	maximum = 0.016 (at node 12)
Accepted flit rate average= 0.00096875
	minimum = 0 (at node 0)
	maximum = 0.0155 (at node 15)
Injected packet length average = 1
Accepted packet length average = 1
Total in-flight flits = 1 (0 measured)
Class 21:
Packet latency average = 12.9688
	minimum = 12
	maximum = 13
Network latency average = 12.9688
	minimum = 12
	maximum = 13
Slowest packet = 90
Flit latency average = 12.9688
	minimum = 12
	maximum = 13
Slowest flit = 90
Fragmentation average = 0
	minimum = 0
	maximum = 0
Injected packet rate average = 0.001
	minimum = 0 (at node 0)
	maximum = 0.016 (at node 13)
Accepted packet rate average = 0.001
	minimum = 0 (at node 0)
	maximum = 0.016 (at node 9)
Injected flit rate average = 0.001
	minimum = 0 (at node 0)
	maximum = 0.016 (at node 13)
Accepted flit rate average= 0.001
	minimum = 0 (at node 0)
	maximum = 0.016 (at node 9)
Injected packet length average = 1
Accepted packet length average = 1
Total in-flight flits = 0 (0 measured)
Class 22:
Packet latency average = 20
	minimum = 20
	maximum = 20
Network latency average = 19
	minimum = 19
	maximum = 19
Slowest packet = 22
Flit latency average = 19
	minimum = 19
	maximum = 19
Slowest flit = 22
Fragmentation average = 0
	minimum = 0
	maximum = 0
Injected packet rate average = 0.001
	minimum = 0 (at node 0)
	maximum = 0.016 (at node 13)
Accepted packet rate average = 0.00096875
	minimum = 0 (at node 0)
	maximum = 0.0155 (at node 15)
Injected flit rate average = 0.001
	minimum = 0 (at node 0)
	maximum = 0.016 (at node 13)
Accepted flit rate average= 0.00096875
	minimum = 0 (at node 0)
	maximum = 0.0155 (at node 15)
Injected packet length average = 1
Accepted packet length average = 1
Total in-flight flits = 1 (0 measured)
Class 23:
Packet latency average = 12.9688
	minimum = 12
	maximum = 13
Network latency average = 12.9688
	minimum = 12
	maximum = 13
Slowest packet = 92
Flit latency average = 12.9688
	minimum = 12
	maximum = 13
Slowest flit = 92
Fragmentation average = 0
	minimum = 0
	maximum = 0
Injected packet rate average = 0.001
	minimum = 0 (at node 0)
	maximum = 0.016 (at node 14)
Accepted packet rate average = 0.001
	minimum = 0 (at node 0)
	maximum = 0.016 (at node 10)
Injected flit rate average = 0.001
	minimum = 0 (at node 0)
	maximum = 0.016 (at node 14)
Accepted flit rate average= 0.001
	minimum = 0 (at node 0)
	maximum = 0.016 (at node 10)
Injected packet length average = 1
Accepted packet length average = 1
Total in-flight flits = 0 (0 measured)
Class 24:
Packet latency average = 15
	minimum = 15
	maximum = 15
Network latency average = 14
	minimum = 14
	maximum = 14
Slowest packet = 24
Flit latency average = 14
	minimum = 14
	maximum = 14
Slowest flit = 24
Fragmentation average = 0
	minimum = 0
	maximum = 0
Injected packet rate average = 0.001
	minimum = 0 (at node 0)
	maximum = 0.016 (at node 14)
Accepted packet rate average = 0.001
	minimum = 0 (at node 0)
	maximum = 0.016 (at node 15)
Injected flit rate average = 0.001
	minimum = 0 (at node 0)
	maximum = 0.016 (at node 14)
Accepted flit rate average= 0.001
	minimum = 0 (at node 0)
	maximum = 0.016 (at node 15)
Injected packet length average = 1
Accepted packet length average = 1
Total in-flight flits = 0 (0 measured)
Class 25:
Packet latency average = 12
	minimum = 12
	maximum = 12
Network latency average = 12
	minimum = 12
	maximum = 12
Slowest packet = 25
Flit latency average = 12
	minimum = 12
	maximum = 12
Slowest flit = 25
Fragmentation average = 0
	minimum = 0
	maximum = 0
Injected packet rate average = 0.00390625
	minimum = 0 (at node 0)
	maximum = 0.0625 (at node 15)
Accepted packet rate average = 0.00390625
	minimum = 0 (at node 0)
	maximum = 0.0625 (at node 11)
Injected flit rate average = 0.00390625
	minimum = 0 (at node 0)
	maximum = 0.0625 (at node 15)
Accepted flit rate average= 0.00390625
	minimum = 0 (at node 0)
	maximum = 0.0625 (at node 11)
Injected packet length average = 1
Accepted packet length average = 1
Total in-flight flits = 0 (0 measured)
latency change    = 0
throughput change = 0
latency change    = 0
throughput change = 0
latency change    = 0
throughput change = 0
latency change    = 0
throughput change = 0
latency change    = 0.0666667
throughput change = 0
latency change    = 0
throughput change = 0.0121457
latency change    = 0
throughput change = 0.0162602
latency change    = 0
throughput change = 0.0121457
latency change    = 0
throughput change = 0.00401606
latency change    = 0
throughput change = 0.00806452
latency change    = 0
throughput change = 0.0121457
latency change    = 0
throughput change = 0
latency change    = 0
throughput change = 0
latency change    = 0
throughput change = 0.0322581
latency change    = 0
throughput change = 0
latency change    = 0
throughput change = 0
latency change    = 0
throughput change = 0
latency change    = 0
throughput change = 0
latency change    = 0
throughput change = 0.008
latency change    = 0
throughput change = 0
latency change    = 0
throughput change = 0.0322581
latency change    = 0.00240964
throughput change = 0
latency change    = 0
throughput change = 0.0322581
latency change    = 0.00240964
throughput change = 0
latency change    = 0
throughput change = 0
latency change    = 0
throughput change = 0.008
Class 0:
Packet latency average = 17
	minimum = 17
	maximum = 17
Network latency average = 17
	minimum = 17
	maximum = 17
Slowest packet = 2244
Flit latency average = 17
	minimum = 17
	maximum = 17
Slowest flit = 2244
Fragmentation average = 0
	minimum = 0
	maximum = 0
Injected packet rate average = 0.00025
	minimum = 0 (at node 0)
	maximum = 0.004 (at node 1)
Accepted packet rate average = 0.00025
	minimum = 0 (at node 0)
	maximum = 0.004 (at node 3)
Injected flit rate average = 0.00025
	minimum = 0 (at node 0)
	maximum = 0.004 (at node 1)
Accepted flit rate average= 0.00025
	minimum = 0 (at node 0)
	maximum = 0.004 (at node 3)
Injected packet length average = 1
Accepted packet length average = 1
Total in-flight flits = 0 (0 measured)
Class 1:
Packet latency average = 12
	minimum = 12
	maximum = 12
Network latency average = 12
	minimum = 12
	maximum = 12
Slowest packet = 2245
Flit latency average = 12
	minimum = 12
	maximum = 12
Slowest flit = 2245
Fragmentation average = 0
	minimum = 0
	maximum = 0
Injected packet rate average = 0.00025
	minimum = 0 (at node 0)
	maximum = 0.004 (at node 2)
Accepted packet rate average = 0.00025
	minimum = 0 (at node 0)
	maximum = 0.004 (at node 3)
Injected flit rate average = 0.00025
	minimum = 0 (at node 0)
	maximum = 0.004 (at node 2)
Accepted flit rate average= 0.00025
	minimum = 0 (at node 0)
	maximum = 0.004 (at node 3)
Injected packet length average = 1
Accepted packet length average = 1
Total in-flight flits = 0 (0 measured)
Class 2:
Packet latency average = 17
	minimum = 17
	maximum = 17
Network latency average = 17
	minimum = 17
	maximum = 17
Slowest packet = 2246
Flit latency average = 17
	minimum = 17
	maximum = 17
Slowest flit = 2246
Fragmentation average = 0
	minimum = 0
	maximum = 0
Injected packet rate average = 0.00025
	minimum = 0 (at node 0)
	maximum = 0.004 (at node 3)
Accepted packet rate average = 0.00025
	minimum = 0 (at node 0)
	maximum = 0.004 (at node 1)
Injected flit rate average = 0.00025
	minimum = 0 (at node 0)
	maximum = 0.004 (at node 3)
Accepted flit rate average= 0.00025
	minimum = 0 (at node 0)
	maximum = 0.004 (at node 1)
Injected packet length average = 1
Accepted packet length average = 1
Total in-flight flits = 0 (0 measured)
Class 3:
Packet latency average = 15
	minimum = 15
	maximum = 15
Network latency average = 14
	minimum = 14
	maximum = 14
Slowest packet = 2247
Flit latency average = 14
	minimum = 14
	maximum = 14
Slowest flit = 2247
Fragmentation average = 0
	minimum = 0
	maximum = 0
Injected packet rate average = 0.00025
	minimum = 0 (at node 0)
	maximum = 0.004 (at node 3)
Accepted packet rate average = 0.00025
	minimum = 0 (at node 0)
	maximum = 0.004 (at node 2)
Injected flit rate average = 0.00025
	minimum = 0 (at node 0)
	maximum = 0.004 (at node 3)
Accepted flit rate average= 0.00025
	minimum = 0 (at node 0)
	maximum = 0.004 (at node 2)
Injected packet length average = 1
Accepted packet length average = 1
Total in-flight flits = 0 (0 measured)
Class 4:
Packet latency average = 14
	minimum = 14
	maximum = 14
Network latency average = 12
	minimum = 12
	maximum = 12
Slowest packet = 2248
Flit latency average = 12
	minimum = 12
	maximum = 12
Slowest flit = 2248
Fragmentation average = 0
	minimum = 0
	maximum = 0
Injected packet rate average = 0.000125
	minimum = 0 (at node 0)
	maximum = 0.002 (at node 3)
Accepted packet rate average = 0.000125
	minimum = 0 (at node 0)
	maximum = 0.002 (at node 7)
Injected flit rate average = 0.000125
	minimum = 0 (at node 0)
	maximum = 0.002 (at node 3)
Accepted flit rate average= 0.000125
	minimum = 0 (at node 0)
	maximum = 0.002 (at node 7)
Injected packet length average = 1
Accepted packet length average = 1
Total in-flight flits = 0 (0 measured)
Class 5:
Packet latency average = 26
	minimum = 26
	maximum = 26
Network latency average = 23
	minimum = 23
	maximum = 23
Slowest packet = 2169
Flit latency average = 23
	minimum = 23
	maximum = 23
Slowest flit = 2169
Fragmentation average = 0
	minimum = 0
	maximum = 0
Injected packet rate average = 0.0078125
	minimum = 0 (at node 0)
	maximum = 0.125 (at node 4)
Accepted packet rate average = 0.0078125
	minimum = 0 (at node 0)
	maximum = 0.125 (at node 1)
Injected flit rate average = 0.0078125
	minimum = 0 (at node 0)
	maximum = 0.125 (at node 4)
Accepted flit rate average= 0.0078125
	minimum = 0 (at node 0)
	maximum = 0.125 (at node 1)
Injected packet length average = 1
Accepted packet length average = 1
Total in-flight flits = 3 (0 measured)
Class 6:
Packet latency average = 34
	minimum = 34
	maximum = 34
Network latency average = 30
	minimum = 30
	maximum = 30
Slowest packet = 2162
Flit latency average = 30
	minimum = 30
	maximum = 30
Slowest flit = 2162
Fragmentation average = 0
	minimum = 0
	maximum = 0
Injected packet rate average = 0.0078125
	minimum = 0 (at node 0)
	maximum = 0.125 (at node 4)
Accepted packet rate average = 0.0078125
	minimum = 0 (at node 0)
	maximum = 0.125 (at node 2)
Injected flit rate average = 0.0078125
	minimum = 0 (at node 0)
	maximum = 0.125 (at node 4)
Accepted flit rate average= 0.0078125
	minimum = 0 (at node 0)
	maximum = 0.125 (at node 2)
Injected packet length average = 1
Accepted packet length average = 1
Total in-flight flits = 4 (0 measured)
Class 7:
Packet latency average = 27
	minimum = 27
	maximum = 27
Network latency average = 22
	minimum = 22
	maximum = 22
Slowest packet = 2171
Flit latency average = 22
	minimum = 22
	maximum = 22
Slowest flit = 2171
Fragmentation average = 0
	minimum = 0
	maximum = 0
Injected packet rate average = 0.0078125
	minimum = 0 (at node 0)
	maximum = 0.125 (at node 4)
Accepted packet rate average = 0.0078125
	minimum = 0 (at node 0)
	maximum = 0.125 (at node 5)
Injected flit rate average = 0.0078125
	minimum = 0 (at node 0)
	maximum = 0.125 (at node 4)
Accepted flit rate average= 0.0078125
	minimum = 0 (at node 0)
	maximum = 0.125 (at node 5)
Injected packet length average = 1
Accepted packet length average = 1
Total in-flight flits = 3 (0 measured)
Class 8:
Packet latency average = 12
	minimum = 12
	maximum = 12
Network latency average = 12
	minimum = 12
	maximum = 12
Slowest packet = 2199
Flit latency average = 12
	minimum = 12
	maximum = 12
Slowest flit = 2199
Fragmentation average = 0
	minimum = 0
	maximum = 0
Injected packet rate average = 0.0078125
	minimum = 0 (at node 0)
	maximum = 0.125 (at node 4)
Accepted packet rate average = 0.0078125
	minimum = 0 (at node 0)
	maximum = 0.125 (at node 8)
Injected flit rate average = 0.0078125
	minimum = 0 (at node 0)
	maximum = 0.125 (at node 4)
Accepted flit rate average= 0.0078125
	minimum = 0 (at node 0)
	maximum = 0.125 (at node 8)
Injected packet length average = 1
Accepted packet length average = 1
Total in-flight flits = 1 (0 measured)
Class 9:
Packet latency average = 20
	minimum = 20
	maximum = 20
Network latency average = 19
	minimum = 19
	maximum = 19
Slowest packet = 2179
Flit latency average = 19
	minimum = 19
	maximum = 19
Slowest flit = 2179
Fragmentation average = 0
	minimum = 0
	maximum = 0
Injected packet rate average = 0.0078125
	minimum = 0 (at node 0)
	maximum = 0.125 (at node 4)
Accepted packet rate average = 0.0078125
	minimum = 0 (at node 0)
	maximum = 0.125 (at node 9)
Injected flit rate average = 0.0078125
	minimum = 0 (at node 0)
	maximum = 0.125 (at node 4)
Accepted flit rate average= 0.0078125
	minimum = 0 (at node 0)
	maximum = 0.125 (at node 9)
Injected packet length average = 1
Accepted packet length average = 1
Total in-flight flits = 2 (0 measured)
Class 10:
Packet latency average = 28
	minimum = 28
	maximum = 28
Network latency average = 26
	minimum = 26
	maximum = 26
Slowest packet = 2174
Flit latency average = 26
	minimum = 26
	maximum = 26
Slowest flit = 2174
Fragmentation average = 0
	minimum = 0
	maximum = 0
Injected packet rate average = 0.0078125
	minimum = 0 (at node 0)
	maximum = 0.125 (at node 4)
Accepted packet rate average = 0.0078125
	minimum = 0 (at node 0)
	maximum = 0.125 (at node 10)
Injected flit rate average = 0.0078125
	minimum = 0 (at node 0)
	maximum = 0.125 (at node 4)
Accepted flit rate average= 0.0078125
	minimum = 0 (at node 0)
	maximum = 0.125 (at node 10)
Injected packet length average = 1
Accepted packet length average = 1
Total in-flight flits = 3 (0 measured)
Class 11:
Packet latency average = 12
	minimum = 12
	maximum = 12
Network latency average = 12
	minimum = 12
	maximum = 12
Slowest packet = 2255
Flit latency average = 12
	minimum = 12
	maximum = 12
Slowest flit = 2255
Fragmentation average = 0
	minimum = 0
	maximum = 0
Injected packet rate average = 0.0009375
	minimum = 0 (at node 0)
	maximum = 0.015 (at node 5)
Accepted packet rate average = 0.0009375
	minimum = 0 (at node 0)
	maximum = 0.015 (at node 6)
Injected flit rate average = 0.0009375
	minimum = 0 (at node 0)
	maximum = 0.015 (at node 5)
Accepted flit rate average= 0.0009375
	minimum = 0 (at node 0)
	maximum = 0.015 (at node 6)
Injected packet length average = 1
Accepted packet length average = 1
Total in-flight flits = 0 (0 measured)
Class 12:
Packet latency average = 15
	minimum = 15
	maximum = 15
Network latency average = 14
	minimum = 14
	maximum = 14
Slowest packet = 2256
Flit latency average = 14
	minimum = 14
	maximum = 14
Slowest flit = 2256
Fragmentation average = 0
	minimum = 0
	maximum = 0
Injected packet rate average = 0.0009375
	minimum = 0 (at node 0)
	maximum = 0.015 (at node 6)
Accepted packet rate average = 0.0009375
	minimum = 0 (at node 0)
	maximum = 0.015 (at node 5)
Injected flit rate average = 0.0009375
	minimum = 0 (at node 0)
	maximum = 0.015 (at node 6)
Accepted flit rate average= 0.0009375
	minimum = 0 (at node 0)
	maximum = 0.015 (at node 5)
Injected packet length average = 1
Accepted packet length average = 1
Total in-flight flits = 0 (0 measured)
Class 13:
Packet latency average = 22
	minimum = 22
	maximum = 22
Network latency average = 22
	minimum = 22
	maximum = 22
Slowest packet = 2183
Flit latency average = 22
	minimum = 22
	maximum = 22
Slowest flit = 2183
Fragmentation average = 0
	minimum = 0
	maximum = 0
Injected packet rate average = 0.0009375
	minimum = 0 (at node 0)
	maximum = 0.015 (at node 6)
Accepted packet rate average = 0.001
	minimum = 0 (at node 0)
	maximum = 0.016 (at node 15)
Injected flit rate average = 0.0009375
	minimum = 0 (at node 0)
	maximum = 0.015 (at node 6)
Accepted flit rate average= 0.001
	minimum = 0 (at node 0)
	maximum = 0.016 (at node 15)
Injected packet length average = 1
Accepted packet length average = 1
Total in-flight flits = 0 (0 measured)
Class 14:
Packet latency average = 12
	minimum = 12
	maximum = 12
Network latency average = 12
	minimum = 12
	maximum = 12
Slowest packet = 2258
Flit latency average = 12
	minimum = 12
	maximum = 12
Slowest flit = 2258
Fragmentation average = 0
	minimum = 0
	maximum = 0
Injected packet rate average = 0.0009375
	minimum = 0 (at node 0)
	maximum = 0.015 (at node 8)
Accepted packet rate average = 0.0009375
	minimum = 0 (at node 0)
	maximum = 0.015 (at node 12)
Injected flit rate average = 0.0009375
	minimum = 0 (at node 0)
	maximum = 0.015 (at node 8)
Accepted flit rate average= 0.0009375
	minimum = 0 (at node 0)
	maximum = 0.015 (at node 12)
Injected packet length average = 1
Accepted packet length average = 1
Total in-flight flits = 0 (0 measured)
Class 15:
Packet latency average = 12
	minimum = 12
	maximum = 12
Network latency average = 12
	minimum = 12
	maximum = 12
Slowest packet = 2259
Flit latency average = 12
	minimum = 12
	maximum = 12
Slowest flit = 2259
Fragmentation average = 0
	minimum = 0
	maximum = 0
Injected packet rate average = 0.0009375
	minimum = 0 (at node 0)
	maximum = 0.015 (at node 9)
Accepted packet rate average = 0.0009375
	minimum = 0 (at node 0)
	maximum = 0.015 (at node 13)
Injected flit rate average = 0.0009375
	minimum = 0 (at node 0)
	maximum = 0.015 (at node 9)
Accepted flit rate average= 0.0009375
	minimum = 0 (at node 0)
	maximum = 0.015 (at node 13)
Injected packet length average = 1
Accepted packet length average = 1
Total in-flight flits = 0 (0 measured)
Class 16:
Packet latency average = 12
	minimum = 12
	maximum = 12
Network latency average = 12
	minimum = 12
	maximum = 12
Slowest packet = 2260
Flit latency average = 12
	minimum = 12
	maximum = 12
Slowest flit = 2260
Fragmentation average = 0
	minimum = 0
	maximum = 0
Injected packet rate average = 0.0009375
	minimum = 0 (at node 0)
	maximum = 0.015 (at node 10)
Accepted packet rate average = 0.0009375
	minimum = 0 (at node 0)
	maximum = 0.015 (at node 14)
Injected flit rate average = 0.0009375
	minimum = 0 (at node 0)
	maximum = 0.015 (at node 10)
Accepted flit rate average= 0.0009375
	minimum = 0 (at node 0)
	maximum = 0.015 (at node 14)
Injected packet length average = 1
Accepted packet length average = 1
Total in-flight flits = 0 (0 measured)
Class 17:
Packet latency average = 13.1333
	minimum = 13
	maximum = 15
Network latency average = 12.1333
	minimum = 12
	maximum = 14
Slowest packet = 2261
Flit latency average = 12.1333
	minimum = 12
	maximum = 14
Slowest flit = 2261
Fragmentation average = 0
	minimum = 0
	maximum = 0
Injected packet rate average = 0.0009375
	minimum = 0 (at node 0)
	maximum = 0.015 (at node 11)
Accepted packet rate average = 0.0009375
	minimum = 0 (at node 0)
	maximum = 0.015 (at node 7)
Injected flit rate average = 0.0009375
	minimum = 0 (at node 0)
	maximum = 0.015 (at node 11)
Accepted flit rate average= 0.0009375
	minimum = 0 (at node 0)
	maximum = 0.015 (at node 7)
Injected packet length average = 1
Accepted packet length average = 1
Total in-flight flits = 0 (0 measured)
Class 18:
Packet latency average = 12
	minimum = 12
	maximum = 12
Network latency average = 12
	minimum = 12
	maximum = 12
Slowest packet = 2208
Flit latency average = 12
	minimum = 12
	maximum = 12
Slowest flit = 2208
Fragmentation average = 0
	minimum = 0
	maximum = 0
Injected packet rate average = 0.0039375
	minimum = 0 (at node 0)
	maximum = 0.063 (at node 11)
Accepted packet rate average = 0.003875
	minimum = 0 (at node 0)
	maximum = 0.062 (at node 15)
Injected flit rate average = 0.0039375
	minimum = 0 (at node 0)
	maximum = 0.063 (at node 11)
Accepted flit rate average= 0.003875
	minimum = 0 (at node 0)
	maximum = 0.062 (at node 15)
Injected packet length average = 1
Accepted packet length average = 1
Total in-flight flits = 1 (0 measured)
Class 19:
Packet latency average = 13
	minimum = 13
	maximum = 13
Network latency average = 13
	minimum = 13
	maximum = 13
Slowest packet = 2263
Flit latency average = 13
	minimum = 13
	maximum = 13
Slowest flit = 2263
Fragmentation average = 0
	minimum = 0
	maximum = 0
Injected packet rate average = 0.0009375
	minimum = 0 (at node 0)
	maximum = 0.015 (at node 12)
Accepted packet rate average = 0.0009375
	minimum = 0 (at node 0)
	maximum = 0.015 (at node 8)
Injected flit rate average = 0.0009375
	minimum = 0 (at node 0)
	maximum = 0.015 (at node 12)
Accepted flit rate average= 0.0009375
	minimum = 0 (at node 0)
	maximum = 0.015 (at node 8)
Injected packet length average = 1
Accepted packet length average = 1
Total in-flight flits = 0 (0 measured)
Class 20:
Packet latency average = 25
	minimum = 25
	maximum = 25
Network latency average = 24
	minimum = 24
	maximum = 24
Slowest packet = 2190
Flit latency average = 24
	minimum = 24
	maximum = 24
Slowest flit = 2190
Fragmentation average = 0
	minimum = 0
	maximum = 0
Injected packet rate average = 0.0009375
	minimum = 0 (at node 0)
	maximum = 0.015 (at node 12)
Accepted packet rate average = 0.001
	minimum = 0 (at node 0)
	maximum = 0.016 (at node 15)
Injected flit rate average = 0.0009375
	minimum = 0 (at node 0)
	maximum = 0.015 (at node 12)
Accepted flit rate average= 0.001
	minimum = 0 (at node 0)
	maximum = 0.016 (at node 15)
Injected packet length average = 1
Accepted packet length average = 1
Total in-flight flits = 0 (0 measured)
Class 21:
Packet latency average = 13
	minimum = 13
	maximum = 13
Network latency average = 13
	minimum = 13
	maximum = 13
Slowest packet = 2265
Flit latency average = 13
	minimum = 13
	maximum = 13
Slowest flit = 2265
Fragmentation average = 0
	minimum = 0
	maximum = 0
Injected packet rate average = 0.0009375
	minimum = 0 (at node 0)
	maximum = 0.015 (at node 13)
Accepted packet rate average = 0.0009375
	minimum = 0 (at node 0)
	maximum = 0.015 (at node 9)
Injected flit rate average = 0.0009375
	minimum = 0 (at node 0)
	maximum = 0.015 (at node 13)
Accepted flit rate average= 0.0009375
	minimum = 0 (at node 0)
	maximum = 0.015 (at node 9)
Injected packet length average = 1
Accepted packet length average = 1
Total in-flight flits = 0 (0 measured)
Class 22:
Packet latency average = 20
	minimum = 20
	maximum = 20
Network latency average = 19
	minimum = 19
	maximum = 19
Slowest packet = 2192
Flit latency average = 19
	minimum = 19
	maximum = 19
Slowest flit = 2192
Fragmentation average = 0
	minimum = 0
	maximum = 0
Injected packet rate average = 0.0009375
	minimum = 0 (at node 0)
	maximum = 0.015 (at node 13)
Accepted packet rate average = 0.001
	minimum = 0 (at node 0)
	maximum = 0.016 (at node 15)
Injected flit rate average = 0.0009375
	minimum = 0 (at node 0)
	maximum = 0.015 (at node 13)
Accepted flit rate average= 0.001
	minimum = 0 (at node 0)
	maximum = 0.016 (at node 15)
Injected packet length average = 1
Accepted packet length average = 1
Total in-flight flits = 0 (0 measured)
Class 23:
Packet latency average = 13
	minimum = 13
	maximum = 13
Network latency average = 13
	minimum = 13
	maximum = 13
Slowest packet = 2267
Flit latency average = 13
	minimum = 13
	maximum = 13
Slowest flit = 2267
Fragmentation average = 0
	minimum = 0
	maximum = 0
Injected packet rate average = 0.0009375
	minimum = 0 (at node 0)
	maximum = 0.015 (at node 14)
Accepted packet rate average = 0.0009375
	minimum = 0 (at node 0)
	maximum = 0.015 (at node 10)
Injected flit rate average = 0.0009375
	minimum = 0 (at node 0)
	maximum = 0.015 (at node 14)
Accepted flit rate average= 0.0009375
	minimum = 0 (at node 0)
	maximum = 0.015 (at node 10)
Injected packet length average = 1
Accepted packet length average = 1
Total in-flight flits = 0 (0 measured)
Class 24:
Packet latency average = 15
	minimum = 15
	maximum = 15
Network latency average = 14
	minimum = 14
	maximum = 14
Slowest packet = 2268
Flit latency average = 14
	minimum = 14
	maximum = 14
Slowest flit = 2268
Fragmentation average = 0
	minimum = 0
	maximum = 0
Injected packet rate average = 0.0009375
	minimum = 0 (at node 0)
	maximum = 0.015 (at node 14)
Accepted packet rate average = 0.0009375
	minimum = 0 (at node 0)
	maximum = 0.015 (at node 15)
Injected flit rate average = 0.0009375
	minimum = 0 (at node 0)
	maximum = 0.015 (at node 14)
Accepted flit rate average= 0.0009375
	minimum = 0 (at node 0)
	maximum = 0.015 (at node 15)
Injected packet length average = 1
Accepted packet length average = 1
Total in-flight flits = 0 (0 measured)
Class 25:
Packet latency average = 12
	minimum = 12
	maximum = 12
Network latency average = 12
	minimum = 12
	maximum = 12
Slowest packet = 2209
Flit latency average = 12
	minimum = 12
	maximum = 12
Slowest flit = 2209
Fragmentation average = 0
	minimum = 0
	maximum = 0
Injected packet rate average = 0.0039375
	minimum = 0 (at node 0)
	maximum = 0.063 (at node 15)
Accepted packet rate average = 0.003875
	minimum = 0 (at node 0)
	maximum = 0.062 (at node 11)
Injected flit rate average = 0.0039375
	minimum = 0 (at node 0)
	maximum = 0.063 (at node 15)
Accepted flit rate average= 0.003875
	minimum = 0 (at node 0)
	maximum = 0.062 (at node 11)
Injected packet length average = 1
Accepted packet length average = 1
Total in-flight flits = 1 (0 measured)
latency change    = 0
throughput change = 0
latency change    = 0
throughput change = 0
latency change    = 0
throughput change = 0
latency change    = 0
throughput change = 0
latency change    = 0.0714286
throughput change = 0
latency change    = 0
throughput change = 0.012
latency change    = 0
throughput change = 0.016
latency change    = 0
throughput change = 0.012
latency change    = 0
throughput change = 0.004
latency change    = 0
throughput change = 0.008
latency change    = 0
throughput change = 0.012
latency change    = 0
throughput change = 0.0666667
latency change    = 0
throughput change = 0.0666667
latency change    = 0
throughput change = 0.03125
latency change    = 0
throughput change = 0.0666667
latency change    = 0
throughput change = 0.0666667
latency change    = 0
throughput change = 0.0666667
latency change    = 0.000634518
throughput change = 0.0666667
latency change    = 0
throughput change = 0.00806452
latency change    = 0
throughput change = 0.0666667
latency change    = 0
throughput change = 0.03125
latency change    = 0.00240385
throughput change = 0.0666667
latency change    = 0
throughput change = 0.03125
latency change    = 0.00240385
throughput change = 0.0666667
latency change    = 0
throughput change = 0.0666667
latency change    = 0
throughput change = 0.00806452
Warmed up ...Time used is 3000 cycles
Class 0:
Packet latency average = 17
	minimum = 17
	maximum = 17
Network latency average = 17
	minimum = 17
	maximum = 17
Slowest packet = 3366
Flit latency average = 17
	minimum = 17
	maximum = 17
Slowest flit = 3366
Fragmentation average = 0
	minimum = 0
	maximum = 0
Injected packet rate average = 0.00025
	minimum = 0 (at node 0)
	maximum = 0.004 (at node 1)
Accepted packet rate average = 0.00025
	minimum = 0 (at node 0)
	maximum = 0.004 (at node 3)
Injected flit rate average = 0.00025
	minimum = 0 (at node 0)
	maximum = 0.004 (at node 1)
Accepted flit rate average= 0.00025
	minimum = 0 (at node 0)
	maximum = 0.004 (at node 3)
Injected packet length average = 1
Accepted packet length average = 1
Total in-flight flits = 0 (0 measured)
Class 1:
Packet latency average = 12
	minimum = 12
	maximum = 12
Network latency average = 12
	minimum = 12
	maximum = 12
Slowest packet = 3367
Flit latency average = 12
	minimum = 12
	maximum = 12
Slowest flit = 3367
Fragmentation average = 0
	minimum = 0
	maximum = 0
Injected packet rate average = 0.00025
	minimum = 0 (at node 0)
	maximum = 0.004 (at node 2)
Accepted packet rate average = 0.00025
	minimum = 0 (at node 0)
	maximum = 0.004 (at node 3)
Injected flit rate average = 0.00025
	minimum = 0 (at node 0)
	maximum = 0.004 (at node 2)
Accepted flit rate average= 0.00025
	minimum = 0 (at node 0)
	maximum = 0.004 (at node 3)
Injected packet length average = 1
Accepted packet length average = 1
Total in-flight flits = 0 (0 measured)
Class 2:
Packet latency average = 17
	minimum = 17
	maximum = 17
Network latency average = 17
	minimum = 17
	maximum = 17
Slowest packet = 3368
Flit latency average = 17
	minimum = 17
	maximum = 17
Slowest flit = 3368
Fragmentation average = 0
	minimum = 0
	maximum = 0
Injected packet rate average = 0.00025
	minimum = 0 (at node 0)
	maximum = 0.004 (at node 3)
Accepted packet rate average = 0.00025
	minimum = 0 (at node 0)
	maximum = 0.004 (at node 1)
Injected flit rate average = 0.00025
	minimum = 0 (at node 0)
	maximum = 0.004 (at node 3)
Accepted flit rate average= 0.00025
	minimum = 0 (at node 0)
	maximum = 0.004 (at node 1)
Injected packet length average = 1
Accepted packet length average = 1
Total in-flight flits = 0 (0 measured)
Class 3:
Packet latency average = 15
	minimum = 15
	maximum = 15
Network latency average = 14
	minimum = 14
	maximum = 14
Slowest packet = 3369
Flit latency average = 14
	minimum = 14
	maximum = 14
Slowest flit = 3369
Fragmentation average = 0
	minimum = 0
	maximum = 0
Injected packet rate average = 0.00025
	minimum = 0 (at node 0)
	maximum = 0.004 (at node 3)
Accepted packet rate average = 0.00025
	minimum = 0 (at node 0)
	maximum = 0.004 (at node 2)
Injected flit rate average = 0.00025
	minimum = 0 (at node 0)
	maximum = 0.004 (at node 3)
Accepted flit rate average= 0.00025
	minimum = 0 (at node 0)
	maximum = 0.004 (at node 2)
Injected packet length average = 1
Accepted packet length average = 1
Total in-flight flits = 0 (0 measured)
Class 4:
Packet latency average = 14
	minimum = 14
	maximum = 14
Network latency average = 12
	minimum = 12
	maximum = 12
Slowest packet = 3370
Flit latency average = 12
	minimum = 12
	maximum = 12
Slowest flit = 3370
Fragmentation average = 0
	minimum = 0
	maximum = 0
Injected packet rate average = 0.000125
	minimum = 0 (at node 0)
	maximum = 0.002 (at node 3)
Accepted packet rate average = 0.000125
	minimum = 0 (at node 0)
	maximum = 0.002 (at node 7)
Injected flit rate average = 0.000125
	minimum = 0 (at node 0)
	maximum = 0.002 (at node 3)
Accepted flit rate average= 0.000125
	minimum = 0 (at node 0)
	maximum = 0.002 (at node 7)
Injected packet length average = 1
Accepted packet length average = 1
Total in-flight flits = 0 (0 measured)
Class 5:
Packet latency average = 26
	minimum = 26
	maximum = 26
Network latency average = 23
	minimum = 23
	maximum = 23
Slowest packet = 3291
Flit latency average = 23
	minimum = 23
	maximum = 23
Slowest flit = 3269
Fragmentation average = 0
	minimum = 0
	maximum = 0
Injected packet rate average = 0.0078125
	minimum = 0 (at node 0)
	maximum = 0.125 (at node 4)
Accepted packet rate average = 0.0078125
	minimum = 0 (at node 0)
	maximum = 0.125 (at node 1)
Injected flit rate average = 0.0078125
	minimum = 0 (at node 0)
	maximum = 0.125 (at node 4)
Accepted flit rate average= 0.0078125
	minimum = 0 (at node 0)
	maximum = 0.125 (at node 1)
Injected packet length average = 1
Accepted packet length average = 1
Total in-flight flits = 3 (3 measured)
Class 6:
Packet latency average = 34
	minimum = 34
	maximum = 34
Network latency average = 30
	minimum = 30
	maximum = 30
Slowest packet = 3292
Flit latency average = 30
	minimum = 30
	maximum = 30
Slowest flit = 3264
Fragmentation average = 0
	minimum = 0
	maximum = 0
Injected packet rate average = 0.0078125
	minimum = 0 (at node 0)
	maximum = 0.125 (at node 4)
Accepted packet rate average = 0.0078125
	minimum = 0 (at node 0)
	maximum = 0.125 (at node 2)
Injected flit rate average = 0.0078125
	minimum = 0 (at node 0)
	maximum = 0.125 (at node 4)
Accepted flit rate average= 0.0078125
	minimum = 0 (at node 0)
	maximum = 0.125 (at node 2)
Injected packet length average = 1
Accepted packet length average = 1
Total in-flight flits = 4 (4 measured)
Class 7:
Packet latency average = 27
	minimum = 27
	maximum = 27
Network latency average = 22
	minimum = 22
	maximum = 22
Slowest packet = 3293
Flit latency average = 22
	minimum = 22
	maximum = 22
Slowest flit = 3271
Fragmentation average = 0
	minimum = 0
	maximum = 0
Injected packet rate average = 0.0078125
	minimum = 0 (at node 0)
	maximum = 0.125 (at node 4)
Accepted packet rate average = 0.0078125
	minimum = 0 (at node 0)
	maximum = 0.125 (at node 5)
Injected flit rate average = 0.0078125
	minimum = 0 (at node 0)
	maximum = 0.125 (at node 4)
Accepted flit rate average= 0.0078125
	minimum = 0 (at node 0)
	maximum = 0.125 (at node 5)
Injected packet length average = 1
Accepted packet length average = 1
Total in-flight flits = 3 (3 measured)
Class 8:
Packet latency average = 12
	minimum = 12
	maximum = 12
Network latency average = 12
	minimum = 12
	maximum = 12
Slowest packet = 3294
Flit latency average = 12
	minimum = 12
	maximum = 12
Slowest flit = 3286
Fragmentation average = 0
	minimum = 0
	maximum = 0
Injected packet rate average = 0.0078125
	minimum = 0 (at node 0)
	maximum = 0.125 (at node 4)
Accepted packet rate average = 0.0078125
	minimum = 0 (at node 0)
	maximum = 0.125 (at node 8)
Injected flit rate average = 0.0078125
	minimum = 0 (at node 0)
	maximum = 0.125 (at node 4)
Accepted flit rate average= 0.0078125
	minimum = 0 (at node 0)
	maximum = 0.125 (at node 8)
Injected packet length average = 1
Accepted packet length average = 1
Total in-flight flits = 1 (1 measured)
Class 9:
Packet latency average = 20
	minimum = 20
	maximum = 20
Network latency average = 19
	minimum = 19
	maximum = 19
Slowest packet = 3295
Flit latency average = 19
	minimum = 19
	maximum = 19
Slowest flit = 3281
Fragmentation average = 0
	minimum = 0
	maximum = 0
Injected packet rate average = 0.0078125
	minimum = 0 (at node 0)
	maximum = 0.125 (at node 4)
Accepted packet rate average = 0.0078125
	minimum = 0 (at node 0)
	maximum = 0.125 (at node 9)
Injected flit rate average = 0.0078125
	minimum = 0 (at node 0)
	maximum = 0.125 (at node 4)
Accepted flit rate average= 0.0078125
	minimum = 0 (at node 0)
	maximum = 0.125 (at node 9)
Injected packet length average = 1
Accepted packet length average = 1
Total in-flight flits = 2 (2 measured)
Class 10:
Packet latency average = 28
	minimum = 28
	maximum = 28
Network latency average = 26
	minimum = 26
	maximum = 26
Slowest packet = 3296
Flit latency average = 26
	minimum = 26
	maximum = 26
Slowest flit = 3274
Fragmentation average = 0
	minimum = 0
	maximum = 0
Injected packet rate average = 0.0078125
	minimum = 0 (at node 0)
	maximum = 0.125 (at node 4)
Accepted packet rate average = 0.0078125
	minimum = 0 (at node 0)
	maximum = 0.125 (at node 10)
Injected flit rate average = 0.0078125
	minimum = 0 (at node 0)
	maximum = 0.125 (at node 4)
Accepted flit rate average= 0.0078125
	minimum = 0 (at node 0)
	maximum = 0.125 (at node 10)
Injected packet length average = 1
Accepted packet length average = 1
Total in-flight flits = 3 (3 measured)
Class 11:
Packet latency average = 12
	minimum = 12
	maximum = 12
Network latency average = 12
	minimum = 12
	maximum = 12
Slowest packet = 3303
Flit latency average = 12
	minimum = 12
	maximum = 12
Slowest flit = 3303
Fragmentation average = 0
	minimum = 0
	maximum = 0
Injected packet rate average = 0.001
	minimum = 0 (at node 0)
	maximum = 0.016 (at node 5)
Accepted packet rate average = 0.001
	minimum = 0 (at node 0)
	maximum = 0.016 (at node 6)
Injected flit rate average = 0.001
	minimum = 0 (at node 0)
	maximum = 0.016 (at node 5)
Accepted flit rate average= 0.001
	minimum = 0 (at node 0)
	maximum = 0.016 (at node 6)
Injected packet length average = 1
Accepted packet length average = 1
Total in-flight flits = 0 (0 measured)
Class 12:
Packet latency average = 15
	minimum = 15
	maximum = 15
Network latency average = 14
	minimum = 14
	maximum = 14
Slowest packet = 3304
Flit latency average = 14
	minimum = 14
	maximum = 14
Slowest flit = 3304
Fragmentation average = 0
	minimum = 0
	maximum = 0
Injected packet rate average = 0.001
	minimum = 0 (at node 0)
	maximum = 0.016 (at node 6)
Accepted packet rate average = 0.001
	minimum = 0 (at node 0)
	maximum = 0.016 (at node 5)
Injected flit rate average = 0.001
	minimum = 0 (at node 0)
	maximum = 0.016 (at node 6)
Accepted flit rate average= 0.001
	minimum = 0 (at node 0)
	maximum = 0.016 (at node 5)
Injected packet length average = 1
Accepted packet length average = 1
Total in-flight flits = 0 (0 measured)
Class 13:
Packet latency average = 22
	minimum = 22
	maximum = 22
Network latency average = 22
	minimum = 22
	maximum = 22
Slowest packet = 3305
Flit latency average = 22
	minimum = 22
	maximum = 22
Slowest flit = 3305
Fragmentation average = 0
	minimum = 0
	maximum = 0
Injected packet rate average = 0.001
	minimum = 0 (at node 0)
	maximum = 0.016 (at node 6)
Accepted packet rate average = 0.001
	minimum = 0 (at node 0)
	maximum = 0.016 (at node 15)
Injected flit rate average = 0.001
	minimum = 0 (at node 0)
	maximum = 0.016 (at node 6)
Accepted flit rate average= 0.001
	minimum = 0 (at node 0)
	maximum = 0.016 (at node 15)
Injected packet length average = 1
Accepted packet length average = 1
Total in-flight flits = 0 (0 measured)
Class 14:
Packet latency average = 12
	minimum = 12
	maximum = 12
Network latency average = 12
	minimum = 12
	maximum = 12
Slowest packet = 3306
Flit latency average = 12
	minimum = 12
	maximum = 12
Slowest flit = 3306
Fragmentation average = 0
	minimum = 0
	maximum = 0
Injected packet rate average = 0.001
	minimum = 0 (at node 0)
	maximum = 0.016 (at node 8)
Accepted packet rate average = 0.001
	minimum = 0 (at node 0)
	maximum = 0.016 (at node 12)
Injected flit rate average = 0.001
	minimum = 0 (at node 0)
	maximum = 0.016 (at node 8)
Accepted flit rate average= 0.001
	minimum = 0 (at node 0)
	maximum = 0.016 (at node 12)
Injected packet length average = 1
Accepted packet length average = 1
Total in-flight flits = 0 (0 measured)
Class 15:
Packet latency average = 12
	minimum = 12
	maximum = 12
Network latency average = 12
	minimum = 12
	maximum = 12
Slowest packet = 3307
Flit latency average = 12
	minimum = 12
	maximum = 12
Slowest flit = 3307
Fragmentation average = 0
	minimum = 0
	maximum = 0
Injected packet rate average = 0.001
	minimum = 0 (at node 0)
	maximum = 0.016 (at node 9)
Accepted packet rate average = 0.001
	minimum = 0 (at node 0)
	maximum = 0.016 (at node 13)
Injected flit rate average = 0.001
	minimum = 0 (at node 0)
	maximum = 0.016 (at node 9)
Accepted flit rate average= 0.001
	minimum = 0 (at node 0)
	maximum = 0.016 (at node 13)
Injected packet length average = 1
Accepted packet length average = 1
Total in-flight flits = 0 (0 measured)
Class 16:
Packet latency average = 12
	minimum = 12
	maximum = 12
Network latency average = 12
	minimum = 12
	maximum = 12
Slowest packet = 3308
Flit latency average = 12
	minimum = 12
	maximum = 12
Slowest flit = 3308
Fragmentation average = 0
	minimum = 0
	maximum = 0
Injected packet rate average = 0.001
	minimum = 0 (at node 0)
	maximum = 0.016 (at node 10)
Accepted packet rate average = 0.001
	minimum = 0 (at node 0)
	maximum = 0.016 (at node 14)
Injected flit rate average = 0.001
	minimum = 0 (at node 0)
	maximum = 0.016 (at node 10)
Accepted flit rate average= 0.001
	minimum = 0 (at node 0)
	maximum = 0.016 (at node 14)
Injected packet length average = 1
Accepted packet length average = 1
Total in-flight flits = 0 (0 measured)
Class 17:
Packet latency average = 13.125
	minimum = 13
	maximum = 15
Network latency average = 12.125
	minimum = 12
	maximum = 14
Slowest packet = 3383
Flit latency average = 12.125
	minimum = 12
	maximum = 14
Slowest flit = 3383
Fragmentation average = 0
	minimum = 0
	maximum = 0
Injected packet rate average = 0.001
	minimum = 0 (at node 0)
	maximum = 0.016 (at node 11)
Accepted packet rate average = 0.001
	minimum = 0 (at node 0)
	maximum = 0.016 (at node 7)
Injected flit rate average = 0.001
	minimum = 0 (at node 0)
	maximum = 0.016 (at node 11)
Accepted flit rate average= 0.001
	minimum = 0 (at node 0)
	maximum = 0.016 (at node 7)
Injected packet length average = 1
Accepted packet length average = 1
Total in-flight flits = 0 (0 measured)
Class 18:
Packet latency average = 12
	minimum = 12
	maximum = 12
Network latency average = 12
	minimum = 12
	maximum = 12
Slowest packet = 3310
Flit latency average = 12
	minimum = 12
	maximum = 12
Slowest flit = 3289
Fragmentation average = 0
	minimum = 0
	maximum = 0
Injected packet rate average = 0.003875
	minimum = 0 (at node 0)
	maximum = 0.062 (at node 11)
Accepted packet rate average = 0.0039375
	minimum = 0 (at node 0)
	maximum = 0.063 (at node 15)
Injected flit rate average = 0.003875
	minimum = 0 (at node 0)
	maximum = 0.062 (at node 11)
Accepted flit rate average= 0.0039375
	minimum = 0 (at node 0)
	maximum = 0.063 (at node 15)
Injected packet length average = 1
Accepted packet length average = 1
Total in-flight flits = 0 (0 measured)
Class 19:
Packet latency average = 13
	minimum = 13
	maximum = 13
Network latency average = 13
	minimum = 13
	maximum = 13
Slowest packet = 3311
Flit latency average = 13
	minimum = 13
	maximum = 13
Slowest flit = 3311
Fragmentation average = 0
	minimum = 0
	maximum = 0
Injected packet rate average = 0.001
	minimum = 0 (at node 0)
	maximum = 0.016 (at node 12)
Accepted packet rate average = 0.001
	minimum = 0 (at node 0)
	maximum = 0.016 (at node 8)
Injected flit rate average = 0.001
	minimum = 0 (at node 0)
	maximum = 0.016 (at node 12)
Accepted flit rate average= 0.001
	minimum = 0 (at node 0)
	maximum = 0.016 (at node 8)
Injected packet length average = 1
Accepted packet length average = 1
Total in-flight flits = 0 (0 measured)
Class 20:
Packet latency average = 25
	minimum = 25
	maximum = 25
Network latency average = 24
	minimum = 24
	maximum = 24
Slowest packet = 3312
Flit latency average = 24
	minimum = 24
	maximum = 24
Slowest flit = 3312
Fragmentation average = 0
	minimum = 0
	maximum = 0
Injected packet rate average = 0.001
	minimum = 0 (at node 0)
	maximum = 0.016 (at node 12)
Accepted packet rate average = 0.001
	minimum = 0 (at node 0)
	maximum = 0.016 (at node 15)
Injected flit rate average = 0.001
	minimum = 0 (at node 0)
	maximum = 0.016 (at node 12)
Accepted flit rate average= 0.001
	minimum = 0 (at node 0)
	maximum = 0.016 (at node 15)
Injected packet length average = 1
Accepted packet length average = 1
[...]
Hops average = 2 (1 samples)
====== Traffic class 5 ======
Packet latency average = 26 (1 samples)
	minimum = 26 (1 samples)
	maximum = 26 (1 samples)
Network latency average = 23 (1 samples)
	minimum = 23 (1 samples)
	maximum = 23 (1 samples)
Flit latency average = 23 (1 samples)
	minimum = 23 (1 samples)
	maximum = 23 (1 samples)
Fragmentation average = 0 (1 samples)
	minimum = 0 (1 samples)
	maximum = 0 (1 samples)
Injected packet rate average = 0.0078125 (1 samples)
	minimum = 0 (1 samples)
	maximum = 0.125 (1 samples)
Accepted packet rate average = 0.0078125 (1 samples)
	minimum = 0 (1 samples)
	maximum = 0.125 (1 samples)
Injected flit rate average = 0.0078125 (1 samples)
	minimum = 0 (1 samples)
	maximum = 0.125 (1 samples)
Accepted flit rate average = 0.0078125 (1 samples)
	minimum = 0 (1 samples)
	maximum = 0.125 (1 samples)
Injected packet size average = 1 (1 samples)
Accepted packet size average = 1 (1 samples)
Hops average = 3 (1 samples)
====== Traffic class 6 ======
Packet latency average = 34 (1 samples)
	minimum = 34 (1 samples)
	maximum = 34 (1 samples)
Network latency average = 30 (1 samples)
	minimum = 30 (1 samples)
	maximum = 30 (1 samples)
Flit latency average = 30 (1 samples)
	minimum = 30 (1 samples)
	maximum = 30 (1 samples)
Fragmentation average = 0 (1 samples)
	minimum = 0 (1 samples)
	maximum = 0 (1 samples)
Injected packet rate average = 0.0078125 (1 samples)
	minimum = 0 (1 samples)
	maximum = 0.125 (1 samples)
Accepted packet rate average = 0.0078125 (1 samples)
	minimum = 0 (1 samples)
	maximum = 0.125 (1 samples)
Injected flit rate average = 0.0078125 (1 samples)
	minimum = 0 (1 samples)
	maximum = 0.125 (1 samples)
Accepted flit rate average = 0.0078125 (1 samples)
	minimum = 0 (1 samples)
	maximum = 0.125 (1 samples)
Injected packet size average = 1 (1 samples)
Accepted packet size average = 1 (1 samples)
Hops average = 4 (1 samples)
====== Traffic class 7 ======
Packet latency average = 27 (1 samples)
	minimum = 27 (1 samples)
	maximum = 27 (1 samples)
Network latency average = 22 (1 samples)
	minimum = 22 (1 samples)
	maximum = 22 (1 samples)
Flit latency average = 22 (1 samples)
	minimum = 22 (1 samples)
	maximum = 22 (1 samples)
Fragmentation average = 0 (1 samples)
	minimum = 0 (1 samples)
	maximum = 0 (1 samples)
Injected packet rate average = 0.0078125 (1 samples)
	minimum = 0 (1 samples)
	maximum = 0.125 (1 samples)
Accepted packet rate average = 0.0078125 (1 samples)
	minimum = 0 (1 samples)
	maximum = 0.125 (1 samples)
Injected flit rate average = 0.0078125 (1 samples)
	minimum = 0 (1 samples)
	maximum = 0.125 (1 samples)
Accepted flit rate average = 0.0078125 (1 samples)
	minimum = 0 (1 samples)
	maximum = 0.125 (1 samples)
Injected packet size average = 1 (1 samples)
Accepted packet size average = 1 (1 samples)
Hops average = 2 (1 samples)
====== Traffic class 8 ======
Packet latency average = 12 (1 samples)
	minimum = 12 (1 samples)
	maximum = 12 (1 samples)
Network latency average = 12 (1 samples)
	minimum = 12 (1 samples)
	maximum = 12 (1 samples)
Flit latency average = 12 (1 samples)
	minimum = 12 (1 samples)
	maximum = 12 (1 samples)
Fragmentation average = 0 (1 samples)
	minimum = 0 (1 samples)
	maximum = 0 (1 samples)
Injected packet rate average = 0.0078125 (1 samples)
	minimum = 0 (1 samples)
	maximum = 0.125 (1 samples)
Accepted packet rate average = 0.0078125 (1 samples)
	minimum = 0 (1 samples)
	maximum = 0.125 (1 samples)
Injected flit rate average = 0.0078125 (1 samples)
	minimum = 0 (1 samples)
	maximum = 0.125 (1 samples)
Accepted flit rate average = 0.0078125 (1 samples)
	minimum = 0 (1 samples)
	maximum = 0.125 (1 samples)
Injected packet size average = 1 (1 samples)
Accepted packet size average = 1 (1 samples)
Hops average = 2 (1 samples)
====== Traffic class 9 ======
Packet latency average = 20 (1 samples)
	minimum = 20 (1 samples)
	maximum = 20 (1 samples)
Network latency average = 19 (1 samples)
	minimum = 19 (1 samples)
	maximum = 19 (1 samples)
Flit latency average = 19 (1 samples)
	minimum = 19 (1 samples)
	maximum = 19 (1 samples)
Fragmentation average = 0 (1 samples)
	minimum = 0 (1 samples)
	maximum = 0 (1 samples)
Injected packet rate average = 0.0078125 (1 samples)
	minimum = 0 (1 samples)
	maximum = 0.125 (1 samples)
Accepted packet rate average = 0.0078125 (1 samples)
	minimum = 0 (1 samples)
	maximum = 0.125 (1 samples)
Injected flit rate average = 0.0078125 (1 samples)
	minimum = 0 (1 samples)
	maximum = 0.125 (1 samples)
Accepted flit rate average = 0.0078125 (1 samples)
	minimum = 0 (1 samples)
	maximum = 0.125 (1 samples)
Injected packet size average = 1 (1 samples)
Accepted packet size average = 1 (1 samples)
Hops average = 3 (1 samples)
====== Traffic class 10 ======
Packet latency average = 28.2 (1 samples)
	minimum = 28 (1 samples)
	maximum = 29 (1 samples)
Network latency average = 26.2 (1 samples)
	minimum = 26 (1 samples)
	maximum = 27 (1 samples)
Flit latency average = 26.2051 (1 samples)
	minimum = 26 (1 samples)
	maximum = 27 (1 samples)
Fragmentation average = 0 (1 samples)
	minimum = 0 (1 samples)
	maximum = 0 (1 samples)
Injected packet rate average = 0.0078125 (1 samples)
	minimum = 0 (1 samples)
	maximum = 0.125 (1 samples)
Accepted packet rate average = 0.0078125 (1 samples)
	minimum = 0 (1 samples)
	maximum = 0.125 (1 samples)
Injected flit rate average = 0.0078125 (1 samples)
	minimum = 0 (1 samples)
	maximum = 0.125 (1 samples)
Accepted flit rate average = 0.0078125 (1 samples)
	minimum = 0 (1 samples)
	maximum = 0.125 (1 samples)
Injected packet size average = 1 (1 samples)
Accepted packet size average = 1 (1 samples)
Hops average = 4 (1 samples)
====== Traffic class 11 ======
Packet latency average = 12 (1 samples)
	minimum = 12 (1 samples)
	maximum = 12 (1 samples)
Network latency average = 12 (1 samples)
	minimum = 12 (1 samples)
	maximum = 12 (1 samples)
Flit latency average = 12 (1 samples)
	minimum = 12 (1 samples)
	maximum = 12 (1 samples)
Fragmentation average = 0 (1 samples)
	minimum = 0 (1 samples)
	maximum = 0 (1 samples)
Injected packet rate average = 0.000984375 (1 samples)
	minimum = 0 (1 samples)
	maximum = 0.01575 (1 samples)
Accepted packet rate average = 0.000984375 (1 samples)
	minimum = 0 (1 samples)
	maximum = 0.01575 (1 samples)
Injected flit rate average = 0.000984375 (1 samples)
	minimum = 0 (1 samples)
	maximum = 0.01575 (1 samples)
Accepted flit rate average = 0.000984375 (1 samples)
	minimum = 0 (1 samples)
	maximum = 0.01575 (1 samples)
Injected packet size average = 1 (1 samples)
Accepted packet size average = 1 (1 samples)
Hops average = 2 (1 samples)
====== Traffic class 12 ======
Packet latency average = 15 (1 samples)
	minimum = 15 (1 samples)
	maximum = 15 (1 samples)
Network latency average = 14 (1 samples)
	minimum = 14 (1 samples)
	maximum = 14 (1 samples)
Flit latency average = 14 (1 samples)
	minimum = 14 (1 samples)
	maximum = 14 (1 samples)
Fragmentation average = 0 (1 samples)
	minimum = 0 (1 samples)
	maximum = 0 (1 samples)
Injected packet rate average = 0.000984375 (1 samples)
	minimum = 0 (1 samples)
	maximum = 0.01575 (1 samples)
Accepted packet rate average = 0.000984375 (1 samples)
	minimum = 0 (1 samples)
	maximum = 0.01575 (1 samples)
Injected flit rate average = 0.000984375 (1 samples)
	minimum = 0 (1 samples)
	maximum = 0.01575 (1 samples)
Accepted flit rate average = 0.000984375 (1 samples)
	minimum = 0 (1 samples)
	maximum = 0.01575 (1 samples)
Injected packet size average = 1 (1 samples)
Accepted packet size average = 1 (1 samples)
Hops average = 2 (1 samples)
====== Traffic class 13 ======
Packet latency average = 22 (1 samples)
	minimum = 22 (1 samples)
	maximum = 22 (1 samples)
Network latency average = 22 (1 samples)
	minimum = 22 (1 samples)
	maximum = 22 (1 samples)
Flit latency average = 22 (1 samples)
	minimum = 22 (1 samples)
	maximum = 22 (1 samples)
Fragmentation average = 0 (1 samples)
	minimum = 0 (1 samples)
	maximum = 0 (1 samples)
Injected packet rate average = 0.000984375 (1 samples)
	minimum = 0 (1 samples)
	maximum = 0.01575 (1 samples)
Accepted packet rate average = 0.000984375 (1 samples)
	minimum = 0 (1 samples)
	maximum = 0.01575 (1 samples)
Injected flit rate average = 0.000984375 (1 samples)
	minimum = 0 (1 samples)
	maximum = 0.01575 (1 samples)
Accepted flit rate average = 0.000984375 (1 samples)
	minimum = 0 (1 samples)
	maximum = 0.01575 (1 samples)
Injected packet size average = 1 (1 samples)
Accepted packet size average = 1 (1 samples)
Hops average = 4 (1 samples)
====== Traffic class 14 ======
Packet latency average = 12 (1 samples)
	minimum = 12 (1 samples)
	maximum = 12 (1 samples)
Network latency average = 12 (1 samples)
	minimum = 12 (1 samples)
	maximum = 12 (1 samples)
Flit latency average = 12 (1 samples)
	minimum = 12 (1 samples)
	maximum = 12 (1 samples)
Fragmentation average = 0 (1 samples)
	minimum = 0 (1 samples)
	maximum = 0 (1 samples)
Injected packet rate average = 0.000984375 (1 samples)
	minimum = 0 (1 samples)
	maximum = 0.01575 (1 samples)
Accepted packet rate average = 0.000984375 (1 samples)
	minimum = 0 (1 samples)
	maximum = 0.01575 (1 samples)
Injected flit rate average = 0.000984375 (1 samples)
	minimum = 0 (1 samples)
	maximum = 0.01575 (1 samples)
Accepted flit rate average = 0.000984375 (1 samples)
	minimum = 0 (1 samples)
	maximum = 0.01575 (1 samples)
Injected packet size average = 1 (1 samples)
Accepted packet size average = 1 (1 samples)
Hops average = 2 (1 samples)
====== Traffic class 15 ======
Packet latency average = 12 (1 samples)
	minimum = 12 (1 samples)
	maximum = 12 (1 samples)
Network latency average = 12 (1 samples)
	minimum = 12 (1 samples)
	maximum = 12 (1 samples)
Flit latency average = 12 (1 samples)
	minimum = 12 (1 samples)
	maximum = 12 (1 samples)
Fragmentation average = 0 (1 samples)
	minimum = 0 (1 samples)
	maximum = 0 (1 samples)
Injected packet rate average = 0.000984375 (1 samples)
	minimum = 0 (1 samples)
	maximum = 0.01575 (1 samples)
Accepted packet rate average = 0.000984375 (1 samples)
	minimum = 0 (1 samples)
	maximum = 0.01575 (1 samples)
Injected flit rate average = 0.000984375 (1 samples)
	minimum = 0 (1 samples)
	maximum = 0.01575 (1 samples)
Accepted flit rate average = 0.000984375 (1 samples)
	minimum = 0 (1 samples)
	maximum = 0.01575 (1 samples)
Injected packet size average = 1 (1 samples)
Accepted packet size average = 1 (1 samples)
Hops average = 2 (1 samples)
====== Traffic class 16 ======
Packet latency average = 12 (1 samples)
	minimum = 12 (1 samples)
	maximum = 12 (1 samples)
Network latency average = 12 (1 samples)
	minimum = 12 (1 samples)
	maximum = 12 (1 samples)
Flit latency average = 12 (1 samples)
	minimum = 12 (1 samples)
	maximum = 12 (1 samples)
Fragmentation average = 0 (1 samples)
	minimum = 0 (1 samples)
	maximum = 0 (1 samples)
Injected packet rate average = 0.000984375 (1 samples)
	minimum = 0 (1 samples)
	maximum = 0.01575 (1 samples)
Accepted packet rate average = 0.000984375 (1 samples)
	minimum = 0 (1 samples)
	maximum = 0.01575 (1 samples)
Injected flit rate average = 0.000984375 (1 samples)
	minimum = 0 (1 samples)
	maximum = 0.01575 (1 samples)
Accepted flit rate average = 0.000984375 (1 samples)
	minimum = 0 (1 samples)
	maximum = 0.01575 (1 samples)
Injected packet size average = 1 (1 samples)
Accepted packet size average = 1 (1 samples)
Hops average = 2 (1 samples)
====== Traffic class 17 ======
Packet latency average = 13.127 (1 samples)
	minimum = 13 (1 samples)
	maximum = 15 (1 samples)
Network latency average = 12.127 (1 samples)
	minimum = 12 (1 samples)
	maximum = 14 (1 samples)
Flit latency average = 12.127 (1 samples)
	minimum = 12 (1 samples)
	maximum = 14 (1 samples)
Fragmentation average = 0 (1 samples)
	minimum = 0 (1 samples)
	maximum = 0 (1 samples)
Injected packet rate average = 0.000984375 (1 samples)
	minimum = 0 (1 samples)
	maximum = 0.01575 (1 samples)
Accepted packet rate average = 0.000984375 (1 samples)
	minimum = 0 (1 samples)
	maximum = 0.01575 (1 samples)
Injected flit rate average = 0.000984375 (1 samples)
	minimum = 0 (1 samples)
	maximum = 0.01575 (1 samples)
Accepted flit rate average = 0.000984375 (1 samples)
	minimum = 0 (1 samples)
	maximum = 0.01575 (1 samples)
Injected packet size average = 1 (1 samples)
Accepted packet size average = 1 (1 samples)
Hops average = 2 (1 samples)
====== Traffic class 18 ======
Packet latency average = 12 (1 samples)
	minimum = 12 (1 samples)
	maximum = 12 (1 samples)
Network latency average = 12 (1 samples)
	minimum = 12 (1 samples)
	maximum = 12 (1 samples)
Flit latency average = 12 (1 samples)
	minimum = 12 (1 samples)
	maximum = 12 (1 samples)
Fragmentation average = 0 (1 samples)
	minimum = 0 (1 samples)
	maximum = 0 (1 samples)
Injected packet rate average = 0.00390625 (1 samples)
	minimum = 0 (1 samples)
	maximum = 0.0625 (1 samples)
Accepted packet rate average = 0.00390625 (1 samples)
	minimum = 0 (1 samples)
	maximum = 0.0625 (1 samples)
Injected flit rate average = 0.00390625 (1 samples)
	minimum = 0 (1 samples)
	maximum = 0.0625 (1 samples)
Accepted flit rate average = 0.00390625 (1 samples)
	minimum = 0 (1 samples)
	maximum = 0.0625 (1 samples)
Injected packet size average = 1 (1 samples)
Accepted packet size average = 1 (1 samples)
Hops average = 2 (1 samples)
====== Traffic class 19 ======
Packet latency average = 13 (1 samples)
	minimum = 13 (1 samples)
	maximum = 13 (1 samples)
Network latency average = 13 (1 samples)
	minimum = 13 (1 samples)
	maximum = 13 (1 samples)
Flit latency average = 13 (1 samples)
	minimum = 13 (1 samples)
	maximum = 13 (1 samples)
Fragmentation average = 0 (1 samples)
	minimum = 0 (1 samples)
	maximum = 0 (1 samples)
Injected packet rate average = 0.000984375 (1 samples)
	minimum = 0 (1 samples)
	maximum = 0.01575 (1 samples)
Accepted packet rate average = 0.000984375 (1 samples)
	minimum = 0 (1 samples)
	maximum = 0.01575 (1 samples)
Injected flit rate average = 0.000984375 (1 samples)
	minimum = 0 (1 samples)
	maximum = 0.01575 (1 samples)
Accepted flit rate average = 0.000984375 (1 samples)
	minimum = 0 (1 samples)
	maximum = 0.01575 (1 samples)
Injected packet size average = 1 (1 samples)
Accepted packet size average = 1 (1 samples)
Hops average = 2 (1 samples)
====== Traffic class 20 ======
Packet latency average = 25 (1 samples)
	minimum = 25 (1 samples)
	maximum = 25 (1 samples)
Network latency average = 24 (1 samples)
	minimum = 24 (1 samples)
	maximum = 24 (1 samples)
Flit latency average = 24 (1 samples)
	minimum = 24 (1 samples)
	maximum = 24 (1 samples)
Fragmentation average = 0 (1 samples)
	minimum = 0 (1 samples)
	maximum = 0 (1 samples)
Injected packet rate average = 0.000984375 (1 samples)
	minimum = 0 (1 samples)
	maximum = 0.01575 (1 samples)
Accepted packet rate average = 0.00096875 (1 samples)
	minimum = 0 (1 samples)
	maximum = 0.0155 (1 samples)
Injected flit rate average = 0.000984375 (1 samples)
	minimum = 0 (1 samples)
	maximum = 0.01575 (1 samples)
Accepted flit rate average = 0.00096875 (1 samples)
	minimum = 0 (1 samples)
	maximum = 0.0155 (1 samples)
Injected packet size average = 1 (1 samples)
Accepted packet size average = 1 (1 samples)
Hops average = 4 (1 samples)
====== Traffic class 21 ======
Packet latency average = 13 (1 samples)
	minimum = 13 (1 samples)
	maximum = 13 (1 samples)
Network latency average = 13 (1 samples)
	minimum = 13 (1 samples)
	maximum = 13 (1 samples)
Flit latency average = 13 (1 samples)
	minimum = 13 (1 samples)
	maximum = 13 (1 samples)
Fragmentation average = 0 (1 samples)
	minimum = 0 (1 samples)
	maximum = 0 (1 samples)
Injected packet rate average = 0.000984375 (1 samples)
	minimum = 0 (1 samples)
	maximum = 0.01575 (1 samples)
Accepted packet rate average = 0.000984375 (1 samples)
	minimum = 0 (1 samples)
	maximum = 0.01575 (1 samples)
Injected flit rate average = 0.000984375 (1 samples)
	minimum = 0 (1 samples)
	maximum = 0.01575 (1 samples)
Accepted flit rate average = 0.000984375 (1 samples)
	minimum = 0 (1 samples)
	maximum = 0.01575 (1 samples)
Injected packet size average = 1 (1 samples)
Accepted packet size average = 1 (1 samples)
Hops average = 2 (1 samples)
====== Traffic class 22 ======
Packet latency average = 20 (1 samples)
	minimum = 20 (1 samples)
	maximum = 20 (1 samples)
Network latency average = 19 (1 samples)
	minimum = 19 (1 samples)
	maximum = 19 (1 samples)
Flit latency average = 19 (1 samples)
	minimum = 19 (1 samples)
	maximum = 19 (1 samples)
Fragmentation average = 0 (1 samples)
	minimum = 0 (1 samples)
	maximum = 0 (1 samples)
Injected packet rate average = 0.000984375 (1 samples)
	minimum = 0 (1 samples)
	maximum = 0.01575 (1 samples)
Accepted packet rate average = 0.000984375 (1 samples)
	minimum = 0 (1 samples)
	maximum = 0.01575 (1 samples)
Injected flit rate average = 0.000984375 (1 samples)
	minimum = 0 (1 samples)
	maximum = 0.01575 (1 samples)
Accepted flit rate average = 0.000984375 (1 samples)
	minimum = 0 (1 samples)
	maximum = 0.01575 (1 samples)
Injected packet size average = 1 (1 samples)
Accepted packet size average = 1 (1 samples)
Hops average = 3 (1 samples)
====== Traffic class 23 ======
Packet latency average = 12.8095 (1 samples)
	minimum = 12 (1 samples)
	maximum = 13 (1 samples)
Network latency average = 12.8095 (1 samples)
	minimum = 12 (1 samples)
	maximum = 13 (1 samples)
Flit latency average = 12.8095 (1 samples)
	minimum = 12 (1 samples)
	maximum = 13 (1 samples)
Fragmentation average = 0 (1 samples)
	minimum = 0 (1 samples)
	maximum = 0 (1 samples)
Injected packet rate average = 0.000984375 (1 samples)
	minimum = 0 (1 samples)
	maximum = 0.01575 (1 samples)
Accepted packet rate average = 0.000984375 (1 samples)
	minimum = 0 (1 samples)
	maximum = 0.01575 (1 samples)
Injected flit rate average = 0.000984375 (1 samples)
	minimum = 0 (1 samples)
	maximum = 0.01575 (1 samples)
Accepted flit rate average = 0.000984375 (1 samples)
	minimum = 0 (1 samples)
	maximum = 0.01575 (1 samples)
Injected packet size average = 1 (1 samples)
Accepted packet size average = 1 (1 samples)
Hops average = 2 (1 samples)
====== Traffic class 24 ======
Packet latency average = 15 (1 samples)
	minimum = 15 (1 samples)
	maximum = 15 (1 samples)
Network latency average = 14 (1 samples)
	minimum = 14 (1 samples)
	maximum = 14 (1 samples)
Flit latency average = 14 (1 samples)
	minimum = 14 (1 samples)
	maximum = 14 (1 samples)
Fragmentation average = 0 (1 samples)
	minimum = 0 (1 samples)
	maximum = 0 (1 samples)
Injected packet rate average = 0.000984375 (1 samples)
	minimum = 0 (1 samples)
	maximum = 0.01575 (1 samples)
Accepted packet rate average = 0.000984375 (1 samples)
	minimum = 0 (1 samples)
	maximum = 0.01575 (1 samples)
Injected flit rate average = 0.000984375 (1 samples)
	minimum = 0 (1 samples)
	maximum = 0.01575 (1 samples)
Accepted flit rate average = 0.000984375 (1 samples)
	minimum = 0 (1 samples)
	maximum = 0.01575 (1 samples)
Injected packet size average = 1 (1 samples)
Accepted packet size average = 1 (1 samples)
Hops average = 2 (1 samples)
====== Traffic class 25 ======
Packet latency average = 12 (1 samples)
	minimum = 12 (1 samples)
	maximum = 12 (1 samples)
Network latency average = 12 (1 samples)
	minimum = 12 (1 samples)
	maximum = 12 (1 samples)
Flit latency average = 12 (1 samples)
	minimum = 12 (1 samples)
	maximum = 12 (1 samples)
Fragmentation average = 0 (1 samples)
	minimum = 0 (1 samples)
	maximum = 0 (1 samples)
Injected packet rate average = 0.00390625 (1 samples)
	minimum = 0 (1 samples)
	maximum = 0.0625 (1 samples)
Accepted packet rate average = 0.00390625 (1 samples)
	minimum = 0 (1 samples)
	maximum = 0.0625 (1 samples)
Injected flit rate average = 0.00390625 (1 samples)
	minimum = 0 (1 samples)
	maximum = 0.0625 (1 samples)
Accepted flit rate average = 0.00390625 (1 samples)
	minimum = 0 (1 samples)
	maximum = 0.0625 (1 samples)
Injected packet size average = 1 (1 samples)
Accepted packet size average = 1 (1 samples)
Hops average = 2 (1 samples)
Total run time 2.34975
