BEGIN Configuration File: examples/ericsson
// Topology
topology = mesh;
k = 4;
n = 2;

// Routing
routing_function = dor;

// Flow control
num_vcs     	= 60;
vc_buf_size 	= 16;

wait_for_tail_credit = 0;

// Router architecture
vc_allocator 	 = separable_input_first;
sw_allocator 	 = separable_input_first;
arb_type	 = round_robin;
credit_delay   	 = 1;
routing_delay  	 = 1;
vc_alloc_delay 	 = 1;
sw_alloc_delay	 = 1;
st_final_delay 	 = 1;
input_speedup    = 1;
output_speedup   = 1;
internal_speedup = 1.0;

// Traffic
traffic          = {customizedpattern,customizedpattern,customizedpattern,customizedpattern,customizedpattern,customizedpattern,customizedpattern,customizedpattern,customizedpattern,customizedpattern,customizedpattern,customizedpattern,customizedpattern,customizedpattern,customizedpattern,customizedpattern,customizedpattern,customizedpattern,customizedpattern,customizedpattern,customizedpattern,customizedpattern,customizedpattern,customizedpattern,customizedpattern,customizedpattern,customizedpattern};

injection_process= {customizedinjectionprocess,customizedinjectionprocess,customizedinjectionprocess,customizedinjectionprocess,customizedinjectionprocess,customizedinjectionprocess,customizedinjectionprocess,customizedinjectionprocess,customizedinjectionprocess,customizedinjectionprocess,customizedinjectionprocess,customizedinjectionprocess,customizedinjectionprocess,customizedinjectionprocess,customizedinjectionprocess,customizedinjectionprocess,customizedinjectionprocess,customizedinjectionprocess,customizedinjectionprocess,customizedinjectionprocess,customizedinjectionprocess,customizedinjectionprocess,customizedinjectionprocess,customizedinjectionprocess,customizedinjectionprocess};

packet_size  	 = 9;
priority	 = class;
classes 	 = 4;
class_priority   = {4,3,2,1};
	
sample_period  	 = 100000; 

warmup_periods   = 3;

// Simulation
sim_type       	 = latency;
//print_activity   = 1;

//injection rate here is packet per cycle, NOT flit per cycle
injection_rate 	 = {0.0833,0.0833,0.0833,0.0833};

watch_file	 = ./watchpacket.txt;

watch_out	 =-;

END Configuration File: examples/ericsson
Class 0:
Packet latency average = 30
	minimum = 30
	maximum = 30
Network latency average = 30
	minimum = 30
	maximum = 30
Slowest packet = 0
Flit latency average = 22
	minimum = 22
	maximum = 22
Slowest flit = 0
Fragmentation average = 0
	minimum = 0
	maximum = 0
Injected packet rate average = 0.0011575
	minimum = 0 (at node 0)
	maximum = 0.01852 (at node 7)
Accepted packet rate average = 0.0011575
	minimum = 0 (at node 0)
	maximum = 0.01852 (at node 9)
Injected flit rate average = 0.0104175
	minimum = 0 (at node 0)
	maximum = 0.16668 (at node 7)
Accepted flit rate average= 0.0104175
	minimum = 0 (at node 0)
	maximum = 0.16668 (at node 9)
Injected packet length average = 9
Accepted packet length average = 9
Total in-flight flits = 0 (0 measured)
Class 1:
Packet latency average = 39
	minimum = 39
	maximum = 39
Network latency average = 39
	minimum = 39
	maximum = 39
Slowest packet = 3
Flit latency average = 31
	minimum = 31
	maximum = 31
Slowest flit = 27
Fragmentation average = 0
	minimum = 0
	maximum = 0
Injected packet rate average = 0.0011575
	minimum = 0 (at node 0)
	maximum = 0.01852 (at node 15)
Accepted packet rate average = 0.0011575
	minimum = 0 (at node 0)
	maximum = 0.01852 (at node 9)
Injected flit rate average = 0.0104175
	minimum = 0 (at node 0)
	maximum = 0.16668 (at node 15)
Accepted flit rate average= 0.0104175
	minimum = 0 (at node 0)
	maximum = 0.16668 (at node 9)
Injected packet length average = 9
Accepted packet length average = 9
Total in-flight flits = 0 (0 measured)
Class 2:
Packet latency average = 38
	minimum = 38
	maximum = 38
Network latency average = 38
	minimum = 38
	maximum = 38
Slowest packet = 2
Flit latency average = 28.8889
	minimum = 28
	maximum = 30
Slowest flit = 23
Fragmentation average = 2
	minimum = 2
	maximum = 2
Injected packet rate average = 0.0011575
	minimum = 0 (at node 0)
	maximum = 0.01852 (at node 14)
Accepted packet rate average = 0.0011575
	minimum = 0 (at node 0)
	maximum = 0.01852 (at node 4)
Injected flit rate average = 0.0104175
	minimum = 0 (at node 0)
	maximum = 0.16668 (at node 14)
Accepted flit rate average= 0.0104175
	minimum = 0 (at node 0)
	maximum = 0.16668 (at node 4)
Injected packet length average = 9
Accepted packet length average = 9
Total in-flight flits = 0 (0 measured)
Class 3:
Packet latency average = 30
	minimum = 30
	maximum = 30
Network latency average = 30
	minimum = 30
	maximum = 30
Slowest packet = 1
Flit latency average = 22
	minimum = 22
	maximum = 22
Slowest flit = 9
Fragmentation average = 0
	minimum = 0
	maximum = 0
Injected packet rate average = 0.0011575
	minimum = 0 (at node 0)
	maximum = 0.01852 (at node 12)
Accepted packet rate average = 0.0011575
	minimum = 0 (at node 1)
	maximum = 0.01852 (at node 0)
Injected flit rate average = 0.0104175
	minimum = 0 (at node 0)
	maximum = 0.16668 (at node 12)
Accepted flit rate average= 0.0104175
	minimum = 0 (at node 1)
	maximum = 0.16668 (at node 0)
Injected packet length average = 9
Accepted packet length average = 9
Total in-flight flits = 0 (0 measured)
latency change    = 1
throughput change = 1
latency change    = 1
throughput change = 1
latency change    = 1
throughput change = 1
latency change    = 1
throughput change = 1
Class 0:
Packet latency average = 30
	minimum = 30
	maximum = 30
Network latency average = 30
	minimum = 30
	maximum = 30
Slowest packet = 0
Flit latency average = 22
	minimum = 22
	maximum = 22
Slowest flit = 0
Fragmentation average = 0
	minimum = 0
	maximum = 0
Injected packet rate average = 0.0011575
	minimum = 0 (at node 0)
	maximum = 0.01852 (at node 7)
Accepted packet rate average = 0.0011575
	minimum = 0 (at node 0)
	maximum = 0.01852 (at node 9)
Injected flit rate average = 0.0104175
	minimum = 0 (at node 0)
	maximum = 0.16668 (at node 7)
Accepted flit rate average= 0.0104175
	minimum = 0 (at node 0)
	maximum = 0.16668 (at node 9)
Injected packet length average = 9
Accepted packet length average = 9
Total in-flight flits = 0 (0 measured)
Class 1:
Packet latency average = 39
	minimum = 39
	maximum = 39
Network latency average = 39
	minimum = 39
	maximum = 39
Slowest packet = 3
Flit latency average = 31
	minimum = 31
	maximum = 31
Slowest flit = 27
Fragmentation average = 0
	minimum = 0
	maximum = 0
Injected packet rate average = 0.0011575
	minimum = 0 (at node 0)
	maximum = 0.01852 (at node 15)
Accepted packet rate average = 0.00115719
	minimum = 0 (at node 0)
	maximum = 0.018515 (at node 9)
Injected flit rate average = 0.0104175
	minimum = 0 (at node 0)
	maximum = 0.16668 (at node 15)
Accepted flit rate average= 0.0104169
	minimum = 0 (at node 0)
	maximum = 0.16667 (at node 9)
Injected packet length average = 9
Accepted packet length average = 9.00189
Total in-flight flits = 2 (0 measured)
Class 2:
Packet latency average = 38
	minimum = 38
	maximum = 38
Network latency average = 38
	minimum = 38
	maximum = 38
Slowest packet = 2
Flit latency average = 28.8889
	minimum = 28
	maximum = 30
Slowest flit = 23
Fragmentation average = 2
	minimum = 2
	maximum = 2
Injected packet rate average = 0.0011575
	minimum = 0 (at node 0)
	maximum = 0.01852 (at node 14)
Accepted packet rate average = 0.00115719
	minimum = 0 (at node 0)
	maximum = 0.018515 (at node 4)
Injected flit rate average = 0.0104175
	minimum = 0 (at node 0)
	maximum = 0.16668 (at node 14)
Accepted flit rate average= 0.0104172
	minimum = 0 (at node 0)
	maximum = 0.166675 (at node 4)
Injected packet length average = 9
Accepted packet length average = 9.00216
Total in-flight flits = 1 (0 measured)
Class 3:
Packet latency average = 30
	minimum = 30
	maximum = 30
Network latency average = 30
	minimum = 30
	maximum = 30
Slowest packet = 1
Flit latency average = 22
	minimum = 22
	maximum = 22
Slowest flit = 9
Fragmentation average = 0
	minimum = 0
	maximum = 0
Injected packet rate average = 0.0011575
	minimum = 0 (at node 0)
	maximum = 0.01852 (at node 12)
Accepted packet rate average = 0.0011575
	minimum = 0 (at node 1)
	maximum = 0.01852 (at node 0)
Injected flit rate average = 0.0104175
	minimum = 0 (at node 0)
	maximum = 0.16668 (at node 12)
Accepted flit rate average= 0.0104175
	minimum = 0 (at node 1)
	maximum = 0.16668 (at node 0)
Injected packet length average = 9
Accepted packet length average = 9
Total in-flight flits = 0 (0 measured)
latency change    = 0
throughput change = 0
latency change    = 0
throughput change = 5.99988e-05
latency change    = 0
throughput change = 2.99985e-05
latency change    = 0
throughput change = 0
Class 0:
Packet latency average = 30
	minimum = 30
	maximum = 30
Network latency average = 30
	minimum = 30
	maximum = 30
Slowest packet = 14816
Flit latency average = 22
	minimum = 22
	maximum = 22
Slowest flit = 133344
Fragmentation average = 0
	minimum = 0
	maximum = 0
Injected packet rate average = 0.0011575
	minimum = 0 (at node 0)
	maximum = 0.01852 (at node 7)
Accepted packet rate average = 0.00115687
	minimum = 0 (at node 0)
	maximum = 0.01851 (at node 9)
Injected flit rate average = 0.0104175
	minimum = 0 (at node 0)
	maximum = 0.16668 (at node 7)
Accepted flit rate average= 0.0104169
	minimum = 0 (at node 0)
	maximum = 0.16667 (at node 9)
Injected packet length average = 9
Accepted packet length average = 9.00432
Total in-flight flits = 1 (0 measured)
Class 1:
Packet latency average = 39
	minimum = 39
	maximum = 39
Network latency average = 39
	minimum = 39
	maximum = 39
Slowest packet = 14815
Flit latency average = 31
	minimum = 31
	maximum = 31
Slowest flit = 133342
Fragmentation average = 0
	minimum = 0
	maximum = 0
Injected packet rate average = 0.0011575
	minimum = 0 (at node 0)
	maximum = 0.01852 (at node 15)
Accepted packet rate average = 0.0011575
	minimum = 0 (at node 0)
	maximum = 0.01852 (at node 9)
Injected flit rate average = 0.0104175
	minimum = 0 (at node 0)
	maximum = 0.16668 (at node 15)
Accepted flit rate average= 0.0104131
	minimum = 0 (at node 0)
	maximum = 0.16661 (at node 9)
Injected packet length average = 9
Accepted packet length average = 8.99622
Total in-flight flits = 9 (0 measured)
Class 2:
Packet latency average = 38
	minimum = 38
	maximum = 38
Network latency average = 38
	minimum = 38
	maximum = 38
Slowest packet = 14814
Flit latency average = 28.8888
	minimum = 28
	maximum = 30
Slowest flit = 133334
Fragmentation average = 2
	minimum = 2
	maximum = 2
Injected packet rate average = 0.0011575
	minimum = 0 (at node 0)
	maximum = 0.01852 (at node 14)
Accepted packet rate average = 0.0011575
	minimum = 0 (at node 0)
	maximum = 0.01852 (at node 4)
Injected flit rate average = 0.0104175
	minimum = 0 (at node 0)
	maximum = 0.16668 (at node 14)
Accepted flit rate average= 0.0104137
	minimum = 0 (at node 0)
	maximum = 0.16662 (at node 4)
Injected packet length average = 9
Accepted packet length average = 8.99676
Total in-flight flits = 7 (0 measured)
Class 3:
Packet latency average = 30
	minimum = 30
	maximum = 30
Network latency average = 30
	minimum = 30
	maximum = 30
Slowest packet = 14817
Flit latency average = 22
	minimum = 22
	maximum = 22
Slowest flit = 133353
Fragmentation average = 0
	minimum = 0
	maximum = 0
Injected packet rate average = 0.0011575
	minimum = 0 (at node 0)
	maximum = 0.01852 (at node 12)
Accepted packet rate average = 0.00115687
	minimum = 0 (at node 1)
	maximum = 0.01851 (at node 0)
Injected flit rate average = 0.0104175
	minimum = 0 (at node 0)
	maximum = 0.16668 (at node 12)
Accepted flit rate average= 0.0104169
	minimum = 0 (at node 1)
	maximum = 0.16667 (at node 0)
Injected packet length average = 9
Accepted packet length average = 9.00432
Total in-flight flits = 1 (0 measured)
latency change    = 0
throughput change = 5.99988e-05
latency change    = 0
throughput change = 0.000360122
latency change    = 0
throughput change = 0.000330092
latency change    = 0
throughput change = 5.99988e-05
Warmed up ...Time used is 300000 cycles
Class 0:
Packet latency average = 30
	minimum = 30
	maximum = 30
Network latency average = 30
	minimum = 30
	maximum = 30
Slowest packet = 22224
Flit latency average = 22
	minimum = 22
	maximum = 22
Slowest flit = 199988
Fragmentation average = 0
	minimum = 0
	maximum = 0
Injected packet rate average = 0.0011575
	minimum = 0 (at node 0)
	maximum = 0.01852 (at node 7)
Accepted packet rate average = 0.0011575
	minimum = 0 (at node 0)
	maximum = 0.01852 (at node 9)
Injected flit rate average = 0.0104175
	minimum = 0 (at node 0)
	maximum = 0.16668 (at node 7)
Accepted flit rate average= 0.0104125
	minimum = 0 (at node 0)
	maximum = 0.1666 (at node 9)
Injected packet length average = 9
Accepted packet length average = 8.99568
Total in-flight flits = 9 (9 measured)
Class 1:
Packet latency average = 39
	minimum = 39
	maximum = 39
Network latency average = 39
	minimum = 39
	maximum = 39
Slowest packet = 22227
Flit latency average = 31
	minimum = 31
	maximum = 31
Slowest flit = 200007
Fragmentation average = 0
	minimum = 0
	maximum = 0
Injected packet rate average = 0.0011575
	minimum = 0 (at node 0)
	maximum = 0.01852 (at node 15)
Accepted packet rate average = 0.0011575
	minimum = 0 (at node 0)
	maximum = 0.01852 (at node 9)
Injected flit rate average = 0.0104175
	minimum = 0 (at node 0)
	maximum = 0.16668 (at node 15)
Accepted flit rate average= 0.0104175
	minimum = 0 (at node 0)
	maximum = 0.16668 (at node 9)
Injected packet length average = 9
Accepted packet length average = 9
Total in-flight flits = 9 (9 measured)
Class 2:
Packet latency average = 38
	minimum = 38
	maximum = 38
Network latency average = 38
	minimum = 38
	maximum = 38
Slowest packet = 22226
Flit latency average = 28.889
	minimum = 28
	maximum = 30
Slowest flit = 200003
Fragmentation average = 2
	minimum = 2
	maximum = 2
Injected packet rate average = 0.0011575
	minimum = 0 (at node 0)
	maximum = 0.01852 (at node 14)
Accepted packet rate average = 0.0011575
	minimum = 0 (at node 0)
	maximum = 0.01852 (at node 4)
Injected flit rate average = 0.0104175
	minimum = 0 (at node 0)
	maximum = 0.16668 (at node 14)
Accepted flit rate average= 0.0104163
	minimum = 0 (at node 0)
	maximum = 0.16666 (at node 4)
Injected packet length average = 9
Accepted packet length average = 8.99892
Total in-flight flits = 9 (9 measured)
Class 3:
Packet latency average = 30
	minimum = 30
	maximum = 30
Network latency average = 30
	minimum = 30
	maximum = 30
Slowest packet = 22225
Flit latency average = 22
	minimum = 22
	maximum = 22
Slowest flit = 199997
Fragmentation average = 0
	minimum = 0
	maximum = 0
Injected packet rate average = 0.0011575
	minimum = 0 (at node 0)
	maximum = 0.01852 (at node 12)
Accepted packet rate average = 0.0011575
	minimum = 0 (at node 1)
	maximum = 0.01852 (at node 0)
Injected flit rate average = 0.0104175
	minimum = 0 (at node 0)
	maximum = 0.16668 (at node 12)
Accepted flit rate average= 0.0104125
	minimum = 0 (at node 1)
	maximum = 0.1666 (at node 0)
Injected packet length average = 9
Accepted packet length average = 8.99568
Total in-flight flits = 9 (9 measured)
latency change    = 0
throughput change = 0.000420168
latency change    = 0
throughput change = 0.000419966
latency change    = 0
throughput change = 0.00024001
latency change    = 0
throughput change = 0.000420168
Class 0:
Packet latency average = 30
	minimum = 30
	maximum = 30
Network latency average = 30
	minimum = 30
	maximum = 30
Slowest packet = 22224
Flit latency average = 22
	minimum = 22
	maximum = 22
Slowest flit = 199988
Fragmentation average = 0
	minimum = 0
	maximum = 0
Injected packet rate average = 0.0011575
	minimum = 0 (at node 0)
	maximum = 0.01852 (at node 7)
Accepted packet rate average = 0.0011575
	minimum = 0 (at node 0)
	maximum = 0.01852 (at node 9)
Injected flit rate average = 0.0104175
	minimum = 0 (at node 0)
	maximum = 0.16668 (at node 7)
Accepted flit rate average= 0.010415
	minimum = 0 (at node 0)
	maximum = 0.16664 (at node 9)
Injected packet length average = 9
Accepted packet length average = 8.99784
Total in-flight flits = 9 (9 measured)
Class 1:
Packet latency average = 39
	minimum = 39
	maximum = 39
Network latency average = 39
	minimum = 39
	maximum = 39
Slowest packet = 22227
Flit latency average = 31
	minimum = 31
	maximum = 31
Slowest flit = 200007
Fragmentation average = 0
	minimum = 0
	maximum = 0
Injected packet rate average = 0.0011575
	minimum = 0 (at node 0)
	maximum = 0.01852 (at node 15)
Accepted packet rate average = 0.0011575
	minimum = 0 (at node 0)
	maximum = 0.01852 (at node 9)
Injected flit rate average = 0.0104175
	minimum = 0 (at node 0)
	maximum = 0.16668 (at node 15)
Accepted flit rate average= 0.0104175
	minimum = 0 (at node 0)
	maximum = 0.16668 (at node 9)
Injected packet length average = 9
Accepted packet length average = 9
Total in-flight flits = 9 (9 measured)
Class 2:
Packet latency average = 38
	minimum = 38
	maximum = 38
Network latency average = 38
	minimum = 38
	maximum = 38
Slowest packet = 22226
Flit latency average = 28.8889
	minimum = 28
	maximum = 30
Slowest flit = 200003
Fragmentation average = 2
	minimum = 2
	maximum = 2
Injected packet rate average = 0.0011575
	minimum = 0 (at node 0)
	maximum = 0.01852 (at node 14)
Accepted packet rate average = 0.0011575
	minimum = 0 (at node 0)
	maximum = 0.01852 (at node 4)
Injected flit rate average = 0.0104175
	minimum = 0 (at node 0)
	maximum = 0.16668 (at node 14)
Accepted flit rate average= 0.0104169
	minimum = 0 (at node 0)
	maximum = 0.16667 (at node 4)
Injected packet length average = 9
Accepted packet length average = 8.99946
Total in-flight flits = 9 (9 measured)
Class 3:
Packet latency average = 30
	minimum = 30
	maximum = 30
Network latency average = 30
	minimum = 30
	maximum = 30
Slowest packet = 22225
Flit latency average = 22
	minimum = 22
	maximum = 22
Slowest flit = 199997
Fragmentation average = 0
	minimum = 0
	maximum = 0
Injected packet rate average = 0.0011575
	minimum = 0 (at node 0)
	maximum = 0.01852 (at node 12)
Accepted packet rate average = 0.0011575
	minimum = 0 (at node 1)
	maximum = 0.01852 (at node 0)
Injected flit rate average = 0.0104175
	minimum = 0 (at node 0)
	maximum = 0.16668 (at node 12)
Accepted flit rate average= 0.010415
	minimum = 0 (at node 1)
	maximum = 0.16664 (at node 0)
Injected packet length average = 9
Accepted packet length average = 8.99784
Total in-flight flits = 9 (9 measured)
latency change    = 0
throughput change = 0.000240038
latency change    = 0
throughput change = 0
latency change    = 0
throughput change = 5.99988e-05
latency change    = 0
throughput change = 0.000240038
Class 0:
Packet latency average = 30
	minimum = 30
	maximum = 30
Network latency average = 30
	minimum = 30
	maximum = 30
Slowest packet = 22224
Flit latency average = 22
	minimum = 22
	maximum = 22
Slowest flit = 199988
Fragmentation average = 0
	minimum = 0
	maximum = 0
Injected packet rate average = 0.0011575
	minimum = 0 (at node 0)
	maximum = 0.01852 (at node 7)
Accepted packet rate average = 0.0011575
	minimum = 0 (at node 0)
	maximum = 0.01852 (at node 9)
Injected flit rate average = 0.0104169
	minimum = 0 (at node 0)
	maximum = 0.16667 (at node 7)
Accepted flit rate average= 0.0104158
	minimum = 0 (at node 0)
	maximum = 0.166653 (at node 9)
Injected packet length average = 8.99946
Accepted packet length average = 8.99856
Total in-flight flits = 9 (9 measured)
Class 1:
Packet latency average = 39
	minimum = 39
	maximum = 39
Network latency average = 39
	minimum = 39
	maximum = 39
Slowest packet = 22227
Flit latency average = 31
	minimum = 31
	maximum = 31
Slowest flit = 200007
Fragmentation average = 0
	minimum = 0
	maximum = 0
Injected packet rate average = 0.0011575
	minimum = 0 (at node 0)
	maximum = 0.01852 (at node 15)
Accepted packet rate average = 0.0011575
	minimum = 0 (at node 0)
	maximum = 0.01852 (at node 9)
Injected flit rate average = 0.0104169
	minimum = 0 (at node 0)
	maximum = 0.16667 (at node 15)
Accepted flit rate average= 0.0104175
	minimum = 0 (at node 0)
	maximum = 0.16668 (at node 9)
Injected packet length average = 8.99946
Accepted packet length average = 9
Total in-flight flits = 9 (9 measured)
Class 2:
Packet latency average = 38
	minimum = 38
	maximum = 38
Network latency average = 38
	minimum = 38
	maximum = 38
Slowest packet = 22226
Flit latency average = 28.8889
	minimum = 28
	maximum = 30
Slowest flit = 200003
Fragmentation average = 2
	minimum = 2
	maximum = 2
Injected packet rate average = 0.0011575
	minimum = 0 (at node 0)
	maximum = 0.01852 (at node 14)
Accepted packet rate average = 0.0011575
	minimum = 0 (at node 0)
	maximum = 0.01852 (at node 4)
Injected flit rate average = 0.0104169
	minimum = 0 (at node 0)
	maximum = 0.16667 (at node 14)
Accepted flit rate average= 0.0104171
	minimum = 0 (at node 0)
	maximum = 0.166673 (at node 4)
Injected packet length average = 8.99946
Accepted packet length average = 8.99964
Total in-flight flits = 9 (9 measured)
Class 3:
Packet latency average = 30
	minimum = 30
	maximum = 30
Network latency average = 30
	minimum = 30
	maximum = 30
Slowest packet = 22225
Flit latency average = 22
	minimum = 22
	maximum = 22
Slowest flit = 199997
Fragmentation average = 0
	minimum = 0
	maximum = 0
Injected packet rate average = 0.0011575
	minimum = 0 (at node 0)
	maximum = 0.01852 (at node 12)
Accepted packet rate average = 0.0011575
	minimum = 0 (at node 1)
	maximum = 0.01852 (at node 0)
Injected flit rate average = 0.0104169
	minimum = 0 (at node 0)
	maximum = 0.16667 (at node 12)
Accepted flit rate average= 0.0104158
	minimum = 0 (at node 1)
	maximum = 0.166653 (at node 0)
Injected packet length average = 8.99946
Accepted packet length average = 8.99856
Total in-flight flits = 9 (9 measured)
latency change    = 0
throughput change = 8.00064e-05
latency change    = 0
throughput change = 0
latency change    = 0
throughput change = 1.99992e-05
latency change    = 0
throughput change = 8.00064e-05
Draining all recorded packets ...
Draining remaining packets ...
Time taken is 600037 cycles
====== Overall Traffic Statistics ======
====== Traffic class 0 ======
Packet latency average = 30 (1 samples)
	minimum = 30 (1 samples)
	maximum = 30 (1 samples)
Network latency average = 30 (1 samples)
	minimum = 30 (1 samples)
	maximum = 30 (1 samples)
Flit latency average = 22 (1 samples)
	minimum = 22 (1 samples)
	maximum = 22 (1 samples)
Fragmentation average = 0 (1 samples)
	minimum = 0 (1 samples)
	maximum = 0 (1 samples)
Injected packet rate average = 0.0011575 (1 samples)
	minimum = 0 (1 samples)
	maximum = 0.01852 (1 samples)
Accepted packet rate average = 0.0011575 (1 samples)
	minimum = 0 (1 samples)
	maximum = 0.01852 (1 samples)
Injected flit rate average = 0.0104169 (1 samples)
	minimum = 0 (1 samples)
	maximum = 0.16667 (1 samples)
Accepted flit rate average = 0.0104158 (1 samples)
	minimum = 0 (1 samples)
	maximum = 0.166653 (1 samples)
Injected packet size average = 8.99946 (1 samples)
Accepted packet size average = 8.99856 (1 samples)
Hops average = 4 (1 samples)
====== Traffic class 1 ======
Packet latency average = 39 (1 samples)
	minimum = 39 (1 samples)
	maximum = 39 (1 samples)
Network latency average = 39 (1 samples)
	minimum = 39 (1 samples)
	maximum = 39 (1 samples)
Flit latency average = 31 (1 samples)
	minimum = 31 (1 samples)
	maximum = 31 (1 samples)
Fragmentation average = 0 (1 samples)
	minimum = 0 (1 samples)
	maximum = 0 (1 samples)
Injected packet rate average = 0.0011575 (1 samples)
	minimum = 0 (1 samples)
	maximum = 0.01852 (1 samples)
Accepted packet rate average = 0.0011575 (1 samples)
	minimum = 0 (1 samples)
	maximum = 0.01852 (1 samples)
Injected flit rate average = 0.0104169 (1 samples)
	minimum = 0 (1 samples)
	maximum = 0.16667 (1 samples)
Accepted flit rate average = 0.0104175 (1 samples)
	minimum = 0 (1 samples)
	maximum = 0.16668 (1 samples)
Injected packet size average = 8.99946 (1 samples)
Accepted packet size average = 9 (1 samples)
Hops average = 4 (1 samples)
====== Traffic class 2 ======
Packet latency average = 38 (1 samples)
	minimum = 38 (1 samples)
	maximum = 38 (1 samples)
Network latency average = 38 (1 samples)
	minimum = 38 (1 samples)
	maximum = 38 (1 samples)
Flit latency average = 28.8889 (1 samples)
	minimum = 28 (1 samples)
	maximum = 30 (1 samples)
Fragmentation average = 2 (1 samples)
	minimum = 2 (1 samples)
	maximum = 2 (1 samples)
Injected packet rate average = 0.0011575 (1 samples)
	minimum = 0 (1 samples)
	maximum = 0.01852 (1 samples)
Accepted packet rate average = 0.0011575 (1 samples)
	minimum = 0 (1 samples)
	maximum = 0.01852 (1 samples)
Injected flit rate average = 0.0104169 (1 samples)
	minimum = 0 (1 samples)
	maximum = 0.16667 (1 samples)
Accepted flit rate average = 0.0104171 (1 samples)
	minimum = 0 (1 samples)
	maximum = 0.166673 (1 samples)
Injected packet size average = 8.99946 (1 samples)
Accepted packet size average = 8.99964 (1 samples)
Hops average = 5 (1 samples)
====== Traffic class 3 ======
Packet latency average = 30 (1 samples)
	minimum = 30 (1 samples)
	maximum = 30 (1 samples)
Network latency average = 30 (1 samples)
	minimum = 30 (1 samples)
	maximum = 30 (1 samples)
Flit latency average = 22 (1 samples)
	minimum = 22 (1 samples)
	maximum = 22 (1 samples)
Fragmentation average = 0 (1 samples)
	minimum = 0 (1 samples)
	maximum = 0 (1 samples)
Injected packet rate average = 0.0011575 (1 samples)
	minimum = 0 (1 samples)
	maximum = 0.01852 (1 samples)
Accepted packet rate average = 0.0011575 (1 samples)
	minimum = 0 (1 samples)
	maximum = 0.01852 (1 samples)
Injected flit rate average = 0.0104169 (1 samples)
	minimum = 0 (1 samples)
	maximum = 0.16667 (1 samples)
Accepted flit rate average = 0.0104158 (1 samples)
	minimum = 0 (1 samples)
	maximum = 0.166653 (1 samples)
Injected packet size average = 8.99946 (1 samples)
Accepted packet size average = 8.99856 (1 samples)
Hops average = 4 (1 samples)
Total run time 134.427
