BEGIN Configuration File: examples/mesh4flows
// Topology
topology = mesh;
k = 4;
n = 2;

// Routing
routing_function = dor;

// Flow control
num_vcs     	= 60;
vc_buf_size 	= 32;

wait_for_tail_credit = 0;

// Router architecture
vc_allocator 	 = separable_input_first;
sw_allocator 	 = separable_input_first;
arb_type	 = round_robin;
credit_delay   	 = 0;
routing_delay  	 = 1;
vc_alloc_delay 	 = 1;
sw_alloc_delay	 = 1;
st_final_delay 	 = 1;
input_speedup    = 1;
output_speedup   = 1;
internal_speedup = 1.0;

// Traffic
traffic          = {customizedpattern,customizedpattern,customizedpattern,customizedpattern};

injection_process= {customizedinjectionprocess,customizedinjectionprocess,customizedinjectionprocess,customizedinjectionprocess};

packet_size  	 = 1;
priority	 = class;
classes 	 = 4;
class_priority   = {4,3,2,1};
	
sample_period  	 = 100000; 

warmup_periods   = 3;

// Simulation
sim_type       	 = latency;
//print_activity   = 1;

//injection rate here is packet per cycle, NOT flit per cycle
injection_rate 	 = {0.0,0.0,0.0,0.0};

watch_file	 = ./watchpacket.txt;

watch_out	 =-;

END Configuration File: examples/mesh4flows
Class 0:
Packet latency average = 22
	minimum = 22
	maximum = 22
Network latency average = 22
	minimum = 22
	maximum = 22
Slowest packet = 0
Flit latency average = 22
	minimum = 22
	maximum = 22
Slowest flit = 0
Fragmentation average = 0
	minimum = 0
	maximum = 0
Injected packet rate average = 0.0104169
	minimum = 0 (at node 0)
	maximum = 0.16667 (at node 7)
Accepted packet rate average = 0.0104144
	minimum = 0 (at node 0)
	maximum = 0.16663 (at node 9)
Injected flit rate average = 0.0104169
	minimum = 0 (at node 0)
	maximum = 0.16667 (at node 7)
Accepted flit rate average= 0.0104144
	minimum = 0 (at node 0)
	maximum = 0.16663 (at node 9)
Injected packet length average = 1
Accepted packet length average = 1
Total in-flight flits = 4 (0 measured)
Class 1:
Packet latency average = 23
	minimum = 23
	maximum = 23
Network latency average = 23
	minimum = 23
	maximum = 23
Slowest packet = 1
Flit latency average = 23
	minimum = 23
	maximum = 23
Slowest flit = 1
Fragmentation average = 0
	minimum = 0
	maximum = 0
Injected packet rate average = 0.0104169
	minimum = 0 (at node 0)
	maximum = 0.16667 (at node 15)
Accepted packet rate average = 0.0104144
	minimum = 0 (at node 0)
	maximum = 0.16663 (at node 9)
Injected flit rate average = 0.0104169
	minimum = 0 (at node 0)
	maximum = 0.16667 (at node 15)
Accepted flit rate average= 0.0104144
	minimum = 0 (at node 0)
	maximum = 0.16663 (at node 9)
Injected packet length average = 1
Accepted packet length average = 1
Total in-flight flits = 4 (0 measured)
Class 2:
Packet latency average = 28
	minimum = 28
	maximum = 28
Network latency average = 28
	minimum = 28
	maximum = 28
Slowest packet = 3
Flit latency average = 28
	minimum = 28
	maximum = 28
Slowest flit = 3
Fragmentation average = 0
	minimum = 0
	maximum = 0
Injected packet rate average = 0.0104163
	minimum = 0 (at node 0)
	maximum = 0.16666 (at node 14)
Accepted packet rate average = 0.0104137
	minimum = 0 (at node 0)
	maximum = 0.16662 (at node 4)
Injected flit rate average = 0.0104163
	minimum = 0 (at node 0)
	maximum = 0.16666 (at node 14)
Accepted flit rate average= 0.0104137
	minimum = 0 (at node 0)
	maximum = 0.16662 (at node 4)
Injected packet length average = 1
Accepted packet length average = 1
Total in-flight flits = 4 (0 measured)
Class 3:
Packet latency average = 22.9999
	minimum = 22
	maximum = 23
Network latency average = 22.9999
	minimum = 22
	maximum = 23
Slowest packet = 10
Flit latency average = 22.9999
	minimum = 22
	maximum = 23
Slowest flit = 10
Fragmentation average = 0
	minimum = 0
	maximum = 0
Injected packet rate average = 0.0104163
	minimum = 0 (at node 0)
	maximum = 0.16666 (at node 12)
Accepted packet rate average = 0.0104144
	minimum = 0 (at node 1)
	maximum = 0.16663 (at node 0)
Injected flit rate average = 0.0104163
	minimum = 0 (at node 0)
	maximum = 0.16666 (at node 12)
Accepted flit rate average= 0.0104144
	minimum = 0 (at node 1)
	maximum = 0.16663 (at node 0)
Injected packet length average = 1
Accepted packet length average = 1
Total in-flight flits = 3 (0 measured)
latency change    = 1
throughput change = 1
latency change    = 1
throughput change = 1
latency change    = 1
throughput change = 1
latency change    = 1
throughput change = 1
Class 0:
Packet latency average = 22
	minimum = 22
	maximum = 22
Network latency average = 22
	minimum = 22
	maximum = 22
Slowest packet = 0
Flit latency average = 22
	minimum = 22
	maximum = 22
Slowest flit = 0
Fragmentation average = 0
	minimum = 0
	maximum = 0
Injected packet rate average = 0.0104169
	minimum = 0 (at node 0)
	maximum = 0.16667 (at node 7)
Accepted packet rate average = 0.0104156
	minimum = 0 (at node 0)
	maximum = 0.16665 (at node 9)
Injected flit rate average = 0.0104169
	minimum = 0 (at node 0)
	maximum = 0.16667 (at node 7)
Accepted flit rate average= 0.0104156
	minimum = 0 (at node 0)
	maximum = 0.16665 (at node 9)
Injected packet length average = 1
Accepted packet length average = 1
Total in-flight flits = 4 (0 measured)
Class 1:
Packet latency average = 23
	minimum = 23
	maximum = 23
Network latency average = 23
	minimum = 23
	maximum = 23
Slowest packet = 1
Flit latency average = 23
	minimum = 23
	maximum = 23
Slowest flit = 1
Fragmentation average = 0
	minimum = 0
	maximum = 0
Injected packet rate average = 0.0104169
	minimum = 0 (at node 0)
	maximum = 0.16667 (at node 15)
Accepted packet rate average = 0.0104156
	minimum = 0 (at node 0)
	maximum = 0.16665 (at node 9)
Injected flit rate average = 0.0104169
	minimum = 0 (at node 0)
	maximum = 0.16667 (at node 15)
Accepted flit rate average= 0.0104156
	minimum = 0 (at node 0)
	maximum = 0.16665 (at node 9)
Injected packet length average = 1
Accepted packet length average = 1
Total in-flight flits = 4 (0 measured)
Class 2:
Packet latency average = 28
	minimum = 28
	maximum = 28
Network latency average = 28
	minimum = 28
	maximum = 28
Slowest packet = 3
Flit latency average = 28
	minimum = 28
	maximum = 28
Slowest flit = 3
Fragmentation average = 0
	minimum = 0
	maximum = 0
Injected packet rate average = 0.0104166
	minimum = 0 (at node 0)
	maximum = 0.166665 (at node 14)
Accepted packet rate average = 0.010415
	minimum = 0 (at node 0)
	maximum = 0.16664 (at node 4)
Injected flit rate average = 0.0104166
	minimum = 0 (at node 0)
	maximum = 0.166665 (at node 14)
Accepted flit rate average= 0.010415
	minimum = 0 (at node 0)
	maximum = 0.16664 (at node 4)
Injected packet length average = 1
Accepted packet length average = 1
Total in-flight flits = 5 (0 measured)
Class 3:
Packet latency average = 22.9999
	minimum = 22
	maximum = 23
Network latency average = 22.9999
	minimum = 22
	maximum = 23
Slowest packet = 10
Flit latency average = 22.9999
	minimum = 22
	maximum = 23
Slowest flit = 10
Fragmentation average = 0
	minimum = 0
	maximum = 0
Injected packet rate average = 0.0104166
	minimum = 0 (at node 0)
	maximum = 0.166665 (at node 12)
Accepted packet rate average = 0.0104153
	minimum = 0 (at node 1)
	maximum = 0.166645 (at node 0)
Injected flit rate average = 0.0104166
	minimum = 0 (at node 0)
	maximum = 0.166665 (at node 12)
Accepted flit rate average= 0.0104153
	minimum = 0 (at node 1)
	maximum = 0.166645 (at node 0)
Injected packet length average = 1
Accepted packet length average = 1
Total in-flight flits = 4 (0 measured)
latency change    = 0
throughput change = 0.000120012
latency change    = 0
throughput change = 0.000120012
latency change    = 0
throughput change = 0.000120019
latency change    = 2.60951e-06
throughput change = 9.00117e-05
Class 0:
Packet latency average = 22
	minimum = 22
	maximum = 22
Network latency average = 22
	minimum = 22
	maximum = 22
Slowest packet = 133320
Flit latency average = 22
	minimum = 22
	maximum = 22
Slowest flit = 133320
Fragmentation average = 0
	minimum = 0
	maximum = 0
Injected packet rate average = 0.0104163
	minimum = 0 (at node 0)
	maximum = 0.16666 (at node 7)
Accepted packet rate average = 0.0104169
	minimum = 0 (at node 0)
	maximum = 0.16667 (at node 9)
Injected flit rate average = 0.0104163
	minimum = 0 (at node 0)
	maximum = 0.16666 (at node 7)
Accepted flit rate average= 0.0104169
	minimum = 0 (at node 0)
	maximum = 0.16667 (at node 9)
Injected packet length average = 1
Accepted packet length average = 1
Total in-flight flits = 3 (0 measured)
Class 1:
Packet latency average = 23
	minimum = 23
	maximum = 23
Network latency average = 23
	minimum = 23
	maximum = 23
Slowest packet = 133321
Flit latency average = 23
	minimum = 23
	maximum = 23
Slowest flit = 133321
Fragmentation average = 0
	minimum = 0
	maximum = 0
Injected packet rate average = 0.0104163
	minimum = 0 (at node 0)
	maximum = 0.16666 (at node 15)
Accepted packet rate average = 0.0104169
	minimum = 0 (at node 0)
	maximum = 0.16667 (at node 9)
Injected flit rate average = 0.0104163
	minimum = 0 (at node 0)
	maximum = 0.16666 (at node 15)
Accepted flit rate average= 0.0104169
	minimum = 0 (at node 0)
	maximum = 0.16667 (at node 9)
Injected packet length average = 1
Accepted packet length average = 1
Total in-flight flits = 3 (0 measured)
Class 2:
Packet latency average = 28
	minimum = 28
	maximum = 28
Network latency average = 28
	minimum = 28
	maximum = 28
Slowest packet = 133315
Flit latency average = 28
	minimum = 28
	maximum = 28
Slowest flit = 133315
Fragmentation average = 0
	minimum = 0
	maximum = 0
Injected packet rate average = 0.0104169
	minimum = 0 (at node 0)
	maximum = 0.16667 (at node 14)
Accepted packet rate average = 0.0104169
	minimum = 0 (at node 0)
	maximum = 0.16667 (at node 4)
Injected flit rate average = 0.0104169
	minimum = 0 (at node 0)
	maximum = 0.16667 (at node 14)
Accepted flit rate average= 0.0104169
	minimum = 0 (at node 0)
	maximum = 0.16667 (at node 4)
Injected packet length average = 1
Accepted packet length average = 1
Total in-flight flits = 5 (0 measured)
Class 3:
Packet latency average = 23
	minimum = 22
	maximum = 23
Network latency average = 23
	minimum = 23
	maximum = 23
Slowest packet = 133318
Flit latency average = 23
	minimum = 23
	maximum = 23
Slowest flit = 133318
Fragmentation average = 0
	minimum = 0
	maximum = 0
Injected packet rate average = 0.0104169
	minimum = 0 (at node 0)
	maximum = 0.16667 (at node 12)
Accepted packet rate average = 0.0104169
	minimum = 0 (at node 1)
	maximum = 0.16667 (at node 0)
Injected flit rate average = 0.0104169
	minimum = 0 (at node 0)
	maximum = 0.16667 (at node 12)
Accepted flit rate average= 0.0104169
	minimum = 0 (at node 1)
	maximum = 0.16667 (at node 0)
Injected packet length average = 1
Accepted packet length average = 1
Total in-flight flits = 4 (0 measured)
latency change    = 0
throughput change = 0.000119998
latency change    = 0
throughput change = 0.000119998
latency change    = 0
throughput change = 0.000179996
latency change    = 8.69767e-07
throughput change = 0.000149997
Warmed up ...Time used is 300000 cycles
Class 0:
Packet latency average = 22
	minimum = 22
	maximum = 22
Network latency average = 22
	minimum = 22
	maximum = 22
Slowest packet = 200000
Flit latency average = 22
	minimum = 22
	maximum = 22
Slowest flit = 199988
Fragmentation average = 0
	minimum = 0
	maximum = 0
Injected packet rate average = 0.0104169
	minimum = 0 (at node 0)
	maximum = 0.16667 (at node 7)
Accepted packet rate average = 0.0104163
	minimum = 0 (at node 0)
	maximum = 0.16666 (at node 9)
Injected flit rate average = 0.0104169
	minimum = 0 (at node 0)
	maximum = 0.16667 (at node 7)
Accepted flit rate average= 0.0104163
	minimum = 0 (at node 0)
	maximum = 0.16666 (at node 9)
Injected packet length average = 1
Accepted packet length average = 1
Total in-flight flits = 4 (4 measured)
Class 1:
Packet latency average = 23
	minimum = 23
	maximum = 23
Network latency average = 23
	minimum = 23
	maximum = 23
Slowest packet = 200001
Flit latency average = 23
	minimum = 23
	maximum = 23
Slowest flit = 199989
Fragmentation average = 0
	minimum = 0
	maximum = 0
Injected packet rate average = 0.0104169
	minimum = 0 (at node 0)
	maximum = 0.16667 (at node 15)
Accepted packet rate average = 0.0104163
	minimum = 0 (at node 0)
	maximum = 0.16666 (at node 9)
Injected flit rate average = 0.0104169
	minimum = 0 (at node 0)
	maximum = 0.16667 (at node 15)
Accepted flit rate average= 0.0104163
	minimum = 0 (at node 0)
	maximum = 0.16666 (at node 9)
Injected packet length average = 1
Accepted packet length average = 1
Total in-flight flits = 4 (4 measured)
Class 2:
Packet latency average = 28
	minimum = 28
	maximum = 28
Network latency average = 28
	minimum = 28
	maximum = 28
Slowest packet = 200003
Flit latency average = 28
	minimum = 28
	maximum = 28
Slowest flit = 199983
Fragmentation average = 0
	minimum = 0
	maximum = 0
Injected packet rate average = 0.0104163
	minimum = 0 (at node 0)
	maximum = 0.16666 (at node 14)
Accepted packet rate average = 0.0104169
	minimum = 0 (at node 0)
	maximum = 0.16667 (at node 4)
Injected flit rate average = 0.0104163
	minimum = 0 (at node 0)
	maximum = 0.16666 (at node 14)
Accepted flit rate average= 0.0104169
	minimum = 0 (at node 0)
	maximum = 0.16667 (at node 4)
Injected packet length average = 1
Accepted packet length average = 1
Total in-flight flits = 4 (4 measured)
Class 3:
Packet latency average = 23
	minimum = 22
	maximum = 23
Network latency average = 23
	minimum = 23
	maximum = 23
Slowest packet = 200002
Flit latency average = 23
	minimum = 23
	maximum = 23
Slowest flit = 199986
Fragmentation average = 0
	minimum = 0
	maximum = 0
Injected packet rate average = 0.0104163
	minimum = 0 (at node 0)
	maximum = 0.16666 (at node 12)
Accepted packet rate average = 0.0104169
	minimum = 0 (at node 1)
	maximum = 0.16667 (at node 0)
Injected flit rate average = 0.0104163
	minimum = 0 (at node 0)
	maximum = 0.16666 (at node 12)
Accepted flit rate average= 0.0104169
	minimum = 0 (at node 1)
	maximum = 0.16667 (at node 0)
Injected packet length average = 1
Accepted packet length average = 1
Total in-flight flits = 3 (3 measured)
latency change    = 0
throughput change = 6.00024e-05
latency change    = 0
throughput change = 6.00024e-05
latency change    = 0
throughput change = 0
latency change    = 4.34772e-07
throughput change = 0
Class 0:
Packet latency average = 22
	minimum = 22
	maximum = 22
Network latency average = 22
	minimum = 22
	maximum = 22
Slowest packet = 200000
Flit latency average = 22
	minimum = 22
	maximum = 22
Slowest flit = 199988
Fragmentation average = 0
	minimum = 0
	maximum = 0
Injected packet rate average = 0.0104169
	minimum = 0 (at node 0)
	maximum = 0.16667 (at node 7)
Accepted packet rate average = 0.0104166
	minimum = 0 (at node 0)
	maximum = 0.166665 (at node 9)
Injected flit rate average = 0.0104169
	minimum = 0 (at node 0)
	maximum = 0.16667 (at node 7)
Accepted flit rate average= 0.0104166
	minimum = 0 (at node 0)
	maximum = 0.166665 (at node 9)
Injected packet length average = 1
Accepted packet length average = 1
Total in-flight flits = 4 (4 measured)
Class 1:
Packet latency average = 23
	minimum = 23
	maximum = 23
Network latency average = 23
	minimum = 23
	maximum = 23
Slowest packet = 200001
Flit latency average = 23
	minimum = 23
	maximum = 23
Slowest flit = 199989
Fragmentation average = 0
	minimum = 0
	maximum = 0
Injected packet rate average = 0.0104169
	minimum = 0 (at node 0)
	maximum = 0.16667 (at node 15)
Accepted packet rate average = 0.0104166
	minimum = 0 (at node 0)
	maximum = 0.166665 (at node 9)
Injected flit rate average = 0.0104169
	minimum = 0 (at node 0)
	maximum = 0.16667 (at node 15)
Accepted flit rate average= 0.0104166
	minimum = 0 (at node 0)
	maximum = 0.166665 (at node 9)
Injected packet length average = 1
Accepted packet length average = 1
Total in-flight flits = 4 (4 measured)
Class 2:
Packet latency average = 28
	minimum = 28
	maximum = 28
Network latency average = 28
	minimum = 28
	maximum = 28
Slowest packet = 200003
Flit latency average = 28
	minimum = 28
	maximum = 28
Slowest flit = 199983
Fragmentation average = 0
	minimum = 0
	maximum = 0
Injected packet rate average = 0.0104166
	minimum = 0 (at node 0)
	maximum = 0.166665 (at node 14)
Accepted packet rate average = 0.0104166
	minimum = 0 (at node 0)
	maximum = 0.166665 (at node 4)
Injected flit rate average = 0.0104166
	minimum = 0 (at node 0)
	maximum = 0.166665 (at node 14)
Accepted flit rate average= 0.0104166
	minimum = 0 (at node 0)
	maximum = 0.166665 (at node 4)
Injected packet length average = 1
Accepted packet length average = 1
Total in-flight flits = 5 (5 measured)
Class 3:
Packet latency average = 23
	minimum = 22
	maximum = 23
Network latency average = 23
	minimum = 23
	maximum = 23
Slowest packet = 200002
Flit latency average = 23
	minimum = 23
	maximum = 23
Slowest flit = 199986
Fragmentation average = 0
	minimum = 0
	maximum = 0
Injected packet rate average = 0.0104166
	minimum = 0 (at node 0)
	maximum = 0.166665 (at node 12)
Accepted packet rate average = 0.0104166
	minimum = 0 (at node 1)
	maximum = 0.166665 (at node 0)
Injected flit rate average = 0.0104166
	minimum = 0 (at node 0)
	maximum = 0.166665 (at node 12)
Accepted flit rate average= 0.0104166
	minimum = 0 (at node 1)
	maximum = 0.166665 (at node 0)
Injected packet length average = 1
Accepted packet length average = 1
Total in-flight flits = 4 (4 measured)
latency change    = 0
throughput change = 3.00003e-05
latency change    = 0
throughput change = 3.00003e-05
latency change    = 0
throughput change = 3.00003e-05
latency change    = 2.60915e-07
throughput change = 3.00003e-05
Class 0:
Packet latency average = 22
	minimum = 22
	maximum = 22
Network latency average = 22
	minimum = 22
	maximum = 22
Slowest packet = 200000
Flit latency average = 22
	minimum = 22
	maximum = 22
Slowest flit = 199988
Fragmentation average = 0
	minimum = 0
	maximum = 0
Injected packet rate average = 0.0104167
	minimum = 0 (at node 0)
	maximum = 0.166667 (at node 7)
Accepted packet rate average = 0.0104167
	minimum = 0 (at node 0)
	maximum = 0.166667 (at node 9)
Injected flit rate average = 0.0104167
	minimum = 0 (at node 0)
	maximum = 0.166667 (at node 7)
Accepted flit rate average= 0.0104167
	minimum = 0 (at node 0)
	maximum = 0.166667 (at node 9)
Injected packet length average = 1
Accepted packet length average = 1
Total in-flight flits = 3 (3 measured)
Class 1:
Packet latency average = 23
	minimum = 23
	maximum = 23
Network latency average = 23
	minimum = 23
	maximum = 23
Slowest packet = 200001
Flit latency average = 23
	minimum = 23
	maximum = 23
Slowest flit = 199989
Fragmentation average = 0
	minimum = 0
	maximum = 0
Injected packet rate average = 0.0104167
	minimum = 0 (at node 0)
	maximum = 0.166667 (at node 15)
Accepted packet rate average = 0.0104167
	minimum = 0 (at node 0)
	maximum = 0.166667 (at node 9)
Injected flit rate average = 0.0104167
	minimum = 0 (at node 0)
	maximum = 0.166667 (at node 15)
Accepted flit rate average= 0.0104167
	minimum = 0 (at node 0)
	maximum = 0.166667 (at node 9)
Injected packet length average = 1
Accepted packet length average = 1
Total in-flight flits = 3 (3 measured)
Class 2:
Packet latency average = 28
	minimum = 28
	maximum = 28
Network latency average = 28
	minimum = 28
	maximum = 28
Slowest packet = 200003
Flit latency average = 28
	minimum = 28
	maximum = 28
Slowest flit = 199983
Fragmentation average = 0
	minimum = 0
	maximum = 0
Injected packet rate average = 0.0104167
	minimum = 0 (at node 0)
	maximum = 0.166667 (at node 14)
Accepted packet rate average = 0.0104167
	minimum = 0 (at node 0)
	maximum = 0.166667 (at node 4)
Injected flit rate average = 0.0104167
	minimum = 0 (at node 0)
	maximum = 0.166667 (at node 14)
Accepted flit rate average= 0.0104167
	minimum = 0 (at node 0)
	maximum = 0.166667 (at node 4)
Injected packet length average = 1
Accepted packet length average = 1
Total in-flight flits = 5 (5 measured)
Class 3:
Packet latency average = 23
	minimum = 22
	maximum = 23
Network latency average = 23
	minimum = 23
	maximum = 23
Slowest packet = 200002
Flit latency average = 23
	minimum = 23
	maximum = 23
Slowest flit = 199986
Fragmentation average = 0
	minimum = 0
	maximum = 0
Injected packet rate average = 0.0104167
	minimum = 0 (at node 0)
	maximum = 0.166667 (at node 12)
Accepted packet rate average = 0.0104167
	minimum = 0 (at node 1)
	maximum = 0.166667 (at node 0)
Injected flit rate average = 0.0104167
	minimum = 0 (at node 0)
	maximum = 0.166667 (at node 12)
Accepted flit rate average= 0.0104167
	minimum = 0 (at node 1)
	maximum = 0.166667 (at node 0)
Injected packet length average = 1
Accepted packet length average = 1
Total in-flight flits = 4 (4 measured)
latency change    = 0
throughput change = 1e-05
latency change    = 0
throughput change = 1e-05
latency change    = 0
throughput change = 1e-05
latency change    = 1.73948e-07
throughput change = 1e-05
Draining all recorded packets ...
Draining remaining packets ...
Time taken is 600054 cycles
====== Overall Traffic Statistics ======
====== Traffic class 0 ======
Packet latency average = 22 (1 samples)
	minimum = 22 (1 samples)
	maximum = 22 (1 samples)
Network latency average = 22 (1 samples)
	minimum = 22 (1 samples)
	maximum = 22 (1 samples)
Flit latency average = 22 (1 samples)
	minimum = 22 (1 samples)
	maximum = 22 (1 samples)
Fragmentation average = 0 (1 samples)
	minimum = 0 (1 samples)
	maximum = 0 (1 samples)
Injected packet rate average = 0.0104167 (1 samples)
	minimum = 0 (1 samples)
	maximum = 0.166667 (1 samples)
Accepted packet rate average = 0.0104167 (1 samples)
	minimum = 0 (1 samples)
	maximum = 0.166667 (1 samples)
Injected flit rate average = 0.0104167 (1 samples)
	minimum = 0 (1 samples)
	maximum = 0.166667 (1 samples)
Accepted flit rate average = 0.0104167 (1 samples)
	minimum = 0 (1 samples)
	maximum = 0.166667 (1 samples)
Injected packet size average = 1 (1 samples)
Accepted packet size average = 1 (1 samples)
Hops average = 4 (1 samples)
====== Traffic class 1 ======
Packet latency average = 23 (1 samples)
	minimum = 23 (1 samples)
	maximum = 23 (1 samples)
Network latency average = 23 (1 samples)
	minimum = 23 (1 samples)
	maximum = 23 (1 samples)
Flit latency average = 23 (1 samples)
	minimum = 23 (1 samples)
	maximum = 23 (1 samples)
Fragmentation average = 0 (1 samples)
	minimum = 0 (1 samples)
	maximum = 0 (1 samples)
Injected packet rate average = 0.0104167 (1 samples)
	minimum = 0 (1 samples)
	maximum = 0.166667 (1 samples)
Accepted packet rate average = 0.0104167 (1 samples)
	minimum = 0 (1 samples)
	maximum = 0.166667 (1 samples)
Injected flit rate average = 0.0104167 (1 samples)
	minimum = 0 (1 samples)
	maximum = 0.166667 (1 samples)
Accepted flit rate average = 0.0104167 (1 samples)
	minimum = 0 (1 samples)
	maximum = 0.166667 (1 samples)
Injected packet size average = 1 (1 samples)
Accepted packet size average = 1 (1 samples)
Hops average = 4 (1 samples)
====== Traffic class 2 ======
Packet latency average = 28 (1 samples)
	minimum = 28 (1 samples)
	maximum = 28 (1 samples)
Network latency average = 28 (1 samples)
	minimum = 28 (1 samples)
	maximum = 28 (1 samples)
Flit latency average = 28 (1 samples)
	minimum = 28 (1 samples)
	maximum = 28 (1 samples)
Fragmentation average = 0 (1 samples)
	minimum = 0 (1 samples)
	maximum = 0 (1 samples)
Injected packet rate average = 0.0104167 (1 samples)
	minimum = 0 (1 samples)
	maximum = 0.166667 (1 samples)
Accepted packet rate average = 0.0104167 (1 samples)
	minimum = 0 (1 samples)
	maximum = 0.166667 (1 samples)
Injected flit rate average = 0.0104167 (1 samples)
	minimum = 0 (1 samples)
	maximum = 0.166667 (1 samples)
Accepted flit rate average = 0.0104167 (1 samples)
	minimum = 0 (1 samples)
	maximum = 0.166667 (1 samples)
Injected packet size average = 1 (1 samples)
Accepted packet size average = 1 (1 samples)
Hops average = 5 (1 samples)
====== Traffic class 3 ======
Packet latency average = 23 (1 samples)
	minimum = 22 (1 samples)
	maximum = 23 (1 samples)
Network latency average = 23 (1 samples)
	minimum = 23 (1 samples)
	maximum = 23 (1 samples)
Flit latency average = 23 (1 samples)
	minimum = 23 (1 samples)
	maximum = 23 (1 samples)
Fragmentation average = 0 (1 samples)
	minimum = 0 (1 samples)
	maximum = 0 (1 samples)
Injected packet rate average = 0.0104167 (1 samples)
	minimum = 0 (1 samples)
	maximum = 0.166667 (1 samples)
Accepted packet rate average = 0.0104167 (1 samples)
	minimum = 0 (1 samples)
	maximum = 0.166667 (1 samples)
Injected flit rate average = 0.0104167 (1 samples)
	minimum = 0 (1 samples)
	maximum = 0.166667 (1 samples)
Accepted flit rate average = 0.0104167 (1 samples)
	minimum = 0 (1 samples)
	maximum = 0.166667 (1 samples)
Injected packet size average = 1 (1 samples)
Accepted packet size average = 1 (1 samples)
Hops average = 4 (1 samples)
Total run time 350.186
