BEGIN Configuration File: examples/ericsson
// Topology
topology = mesh;
k = 4;
n = 2;

// Routing
routing_function = dor;

// Flow control
num_vcs     	= 60;
vc_buf_size 	= 16;

wait_for_tail_credit = 0;

// Router architecture
vc_allocator 	 = separable_input_first;
sw_allocator 	 = separable_input_first;
arb_type	 = round_robin;
credit_delay   	 = 0;
routing_delay  	 = 1;
vc_alloc_delay 	 = 1;
sw_alloc_delay	 = 1;
st_final_delay 	 = 1;
input_speedup    = 1;
output_speedup   = 1;
internal_speedup = 1.0;

// Traffic
traffic          = {customizedpattern,customizedpattern,customizedpattern,customizedpattern,customizedpattern,customizedpattern,customizedpattern,customizedpattern,customizedpattern,customizedpattern,customizedpattern,customizedpattern,customizedpattern,customizedpattern,customizedpattern,customizedpattern,customizedpattern,customizedpattern,customizedpattern,customizedpattern,customizedpattern,customizedpattern,customizedpattern,customizedpattern,customizedpattern,customizedpattern,customizedpattern};

injection_process= {customizedinjectionprocess,customizedinjectionprocess,customizedinjectionprocess,customizedinjectionprocess,customizedinjectionprocess,customizedinjectionprocess,customizedinjectionprocess,customizedinjectionprocess,customizedinjectionprocess,customizedinjectionprocess,customizedinjectionprocess,customizedinjectionprocess,customizedinjectionprocess,customizedinjectionprocess,customizedinjectionprocess,customizedinjectionprocess,customizedinjectionprocess,customizedinjectionprocess,customizedinjectionprocess,customizedinjectionprocess,customizedinjectionprocess,customizedinjectionprocess,customizedinjectionprocess,customizedinjectionprocess,customizedinjectionprocess};

packet_size  	 = 1;
priority	 = class;
classes 	 = 26;
class_priority   = {4,4,4,4,3,2,2,2,9,9,9,1,1,7,8,8,8,5,6,8,7,8,7,8,7,6};
	
sample_period  	 = 100000; 

warmup_periods   = 3;

// Simulation
sim_type       	 = latency;
//print_activity   = 1;

//injection rate here is packet per cycle, NOT flit per cycle
injection_rate 	 = {0.002,0.002,0.002,0.002,0.00390625,0.064,0.064,0.064,0.064,0.064,0.064,0.008,0.008,0.008,0.008,0.008,0.008,0.008,0.032,0.008,0.008,0.008,0.008,0.008,0.008,0.008,0.032};

//watch_file	 = ./watchpacket.txt;

//watch_out	 =-;

END Configuration File: examples/ericsson
Class 0:
Packet latency average = 17
	minimum = 17
	maximum = 17
Network latency average = 17
	minimum = 17
	maximum = 17
Slowest packet = 0
Flit latency average = 17
	minimum = 17
	maximum = 17
Slowest flit = 0
Fragmentation average = 0
	minimum = 0
	maximum = 0
Injected packet rate average = 0.000125
	minimum = 0 (at node 0)
	maximum = 0.002 (at node 1)
Accepted packet rate average = 0.000125
	minimum = 0 (at node 0)
	maximum = 0.002 (at node 3)
Injected flit rate average = 0.000125
	minimum = 0 (at node 0)
	maximum = 0.002 (at node 1)
Accepted flit rate average= 0.000125
	minimum = 0 (at node 0)
	maximum = 0.002 (at node 3)
Injected packet length average = 1
Accepted packet length average = 1
Total in-flight flits = 0 (0 measured)
Class 1:
Packet latency average = 12
	minimum = 12
	maximum = 12
Network latency average = 12
	minimum = 12
	maximum = 12
Slowest packet = 1
Flit latency average = 12
	minimum = 12
	maximum = 12
Slowest flit = 1
Fragmentation average = 0
	minimum = 0
	maximum = 0
Injected packet rate average = 0.000125
	minimum = 0 (at node 0)
	maximum = 0.002 (at node 2)
Accepted packet rate average = 0.000125
	minimum = 0 (at node 0)
	maximum = 0.002 (at node 3)
Injected flit rate average = 0.000125
	minimum = 0 (at node 0)
	maximum = 0.002 (at node 2)
Accepted flit rate average= 0.000125
	minimum = 0 (at node 0)
	maximum = 0.002 (at node 3)
Injected packet length average = 1
Accepted packet length average = 1
Total in-flight flits = 0 (0 measured)
Class 2:
Packet latency average = 17
	minimum = 17
	maximum = 17
Network latency average = 17
	minimum = 17
	maximum = 17
Slowest packet = 2
Flit latency average = 17
	minimum = 17
	maximum = 17
Slowest flit = 2
Fragmentation average = 0
	minimum = 0
	maximum = 0
Injected packet rate average = 0.000125
	minimum = 0 (at node 0)
	maximum = 0.002 (at node 3)
Accepted packet rate average = 0.000125
	minimum = 0 (at node 0)
	maximum = 0.002 (at node 1)
Injected flit rate average = 0.000125
	minimum = 0 (at node 0)
	maximum = 0.002 (at node 3)
Accepted flit rate average= 0.000125
	minimum = 0 (at node 0)
	maximum = 0.002 (at node 1)
Injected packet length average = 1
Accepted packet length average = 1
Total in-flight flits = 0 (0 measured)
Class 3:
Packet latency average = 13
	minimum = 13
	maximum = 13
Network latency average = 12
	minimum = 12
	maximum = 12
Slowest packet = 3
Flit latency average = 12
	minimum = 12
	maximum = 12
Slowest flit = 3
Fragmentation average = 0
	minimum = 0
	maximum = 0
Injected packet rate average = 0.000125
	minimum = 0 (at node 0)
	maximum = 0.002 (at node 3)
Accepted packet rate average = 0.000125
	minimum = 0 (at node 0)
	maximum = 0.002 (at node 2)
Injected flit rate average = 0.000125
	minimum = 0 (at node 0)
	maximum = 0.002 (at node 3)
Accepted flit rate average= 0.000125
	minimum = 0 (at node 0)
	maximum = 0.002 (at node 2)
Injected packet length average = 1
Accepted packet length average = 1
Total in-flight flits = 0 (0 measured)
Class 4:
Packet latency average = 12.0205
	minimum = 12
	maximum = 14
Network latency average = 12
	minimum = 12
	maximum = 12
Slowest packet = 4
Flit latency average = 12
	minimum = 12
	maximum = 12
Slowest flit = 4
Fragmentation average = 0
	minimum = 0
	maximum = 0
Injected packet rate average = 0.000244375
	minimum = 0 (at node 0)
	maximum = 0.00391 (at node 3)
Accepted packet rate average = 0.000244375
	minimum = 0 (at node 0)
	maximum = 0.00391 (at node 7)
Injected flit rate average = 0.000244375
	minimum = 0 (at node 0)
	maximum = 0.00391 (at node 3)
Accepted flit rate average= 0.000244375
	minimum = 0 (at node 0)
	maximum = 0.00391 (at node 7)
Injected packet length average = 1
Accepted packet length average = 1
Total in-flight flits = 0 (0 measured)
Class 5:
Packet latency average = 20.0003
	minimum = 20
	maximum = 21
Network latency average = 17.0003
	minimum = 17
	maximum = 18
Slowest packet = 5
Flit latency average = 17.0003
	minimum = 17
	maximum = 18
Slowest flit = 5
Fragmentation average = 0
	minimum = 0
	maximum = 0
Injected packet rate average = 0.00390625
	minimum = 0 (at node 0)
	maximum = 0.0625 (at node 4)
Accepted packet rate average = 0.00390562
	minimum = 0 (at node 0)
	maximum = 0.06249 (at node 1)
Injected flit rate average = 0.00390625
	minimum = 0 (at node 0)
	maximum = 0.0625 (at node 4)
Accepted flit rate average= 0.00390562
	minimum = 0 (at node 0)
	maximum = 0.06249 (at node 1)
Injected packet length average = 1
Accepted packet length average = 1
Total in-flight flits = 1 (0 measured)
Class 6:
Packet latency average = 26.0091
	minimum = 26
	maximum = 28
Network latency average = 22.0091
	minimum = 22
	maximum = 24
Slowest packet = 6
Flit latency average = 22.0091
	minimum = 22
	maximum = 24
Slowest flit = 27
Fragmentation average = 0
	minimum = 0
	maximum = 0
Injected packet rate average = 0.00390625
	minimum = 0 (at node 0)
	maximum = 0.0625 (at node 4)
Accepted packet rate average = 0.00390562
	minimum = 0 (at node 0)
	maximum = 0.06249 (at node 2)
Injected flit rate average = 0.00390625
	minimum = 0 (at node 0)
	maximum = 0.0625 (at node 4)
Accepted flit rate average= 0.00390562
	minimum = 0 (at node 0)
	maximum = 0.06249 (at node 2)
Injected packet length average = 1
Accepted packet length average = 1
Total in-flight flits = 1 (0 measured)
Class 7:
Packet latency average = 17.0003
	minimum = 17
	maximum = 19
Network latency average = 12.0003
	minimum = 12
	maximum = 14
Slowest packet = 7
Flit latency average = 12.0003
	minimum = 12
	maximum = 14
Slowest flit = 7
Fragmentation average = 0
	minimum = 0
	maximum = 0
Injected packet rate average = 0.00390625
	minimum = 0 (at node 0)
	maximum = 0.0625 (at node 4)
Accepted packet rate average = 0.00390562
	minimum = 0 (at node 0)
	maximum = 0.06249 (at node 5)
Injected flit rate average = 0.00390625
	minimum = 0 (at node 0)
	maximum = 0.0625 (at node 4)
Accepted flit rate average= 0.00390562
	minimum = 0 (at node 0)
	maximum = 0.06249 (at node 5)
Injected packet length average = 1
Accepted packet length average = 1
Total in-flight flits = 1 (0 measured)
Class 8:
Packet latency average = 12
	minimum = 12
	maximum = 12
Network latency average = 12
	minimum = 12
	maximum = 12
Slowest packet = 8
Flit latency average = 12
	minimum = 12
	maximum = 12
Slowest flit = 8
Fragmentation average = 0
	minimum = 0
	maximum = 0
Injected packet rate average = 0.00390625
	minimum = 0 (at node 0)
	maximum = 0.0625 (at node 4)
Accepted packet rate average = 0.00390625
	minimum = 0 (at node 0)
	maximum = 0.0625 (at node 8)
Injected flit rate average = 0.00390625
	minimum = 0 (at node 0)
	maximum = 0.0625 (at node 4)
Accepted flit rate average= 0.00390625
	minimum = 0 (at node 0)
	maximum = 0.0625 (at node 8)
Injected packet length average = 1
Accepted packet length average = 1
Total in-flight flits = 0 (0 measured)
Class 9:
Packet latency average = 18
	minimum = 18
	maximum = 18
Network latency average = 17
	minimum = 17
	maximum = 17
Slowest packet = 9
Flit latency average = 17
	minimum = 17
	maximum = 17
Slowest flit = 9
Fragmentation average = 0
	minimum = 0
	maximum = 0
Injected packet rate average = 0.00390625
	minimum = 0 (at node 0)
	maximum = 0.0625 (at node 4)
Accepted packet rate average = 0.00390562
	minimum = 0 (at node 0)
	maximum = 0.06249 (at node 9)
Injected flit rate average = 0.00390625
	minimum = 0 (at node 0)
	maximum = 0.0625 (at node 4)
Accepted flit rate average= 0.00390562
	minimum = 0 (at node 0)
	maximum = 0.06249 (at node 9)
Injected packet length average = 1
Accepted packet length average = 1
Total in-flight flits = 1 (0 measured)
Class 10:
Packet latency average = 24.0003
	minimum = 24
	maximum = 25
Network latency average = 22.0003
	minimum = 22
	maximum = 23
Slowest packet = 10
Flit latency average = 22.0003
	minimum = 22
	maximum = 23
Slowest flit = 11697
Fragmentation average = 0
	minimum = 0
	maximum = 0
Injected packet rate average = 0.00390625
	minimum = 0 (at node 0)
	maximum = 0.0625 (at node 4)
Accepted packet rate average = 0.00390562
	minimum = 0 (at node 0)
	maximum = 0.06249 (at node 10)
Injected flit rate average = 0.00390625
	minimum = 0 (at node 0)
	maximum = 0.0625 (at node 4)
Accepted flit rate average= 0.00390562
	minimum = 0 (at node 0)
	maximum = 0.06249 (at node 10)
Injected packet length average = 1
Accepted packet length average = 1
Total in-flight flits = 1 (0 measured)
Class 11:
Packet latency average = 12.13
	minimum = 12
	maximum = 14
Network latency average = 12.13
	minimum = 12
	maximum = 14
Slowest packet = 489
Flit latency average = 12.13
	minimum = 12
	maximum = 14
Slowest flit = 489
Fragmentation average = 0
	minimum = 0
	maximum = 0
Injected packet rate average = 0.0005
	minimum = 0 (at node 0)
	maximum = 0.008 (at node 5)
Accepted packet rate average = 0.0005
	minimum = 0 (at node 0)
	maximum = 0.008 (at node 6)
Injected flit rate average = 0.0005
	minimum = 0 (at node 0)
	maximum = 0.008 (at node 5)
Accepted flit rate average= 0.0005
	minimum = 0 (at node 0)
	maximum = 0.008 (at node 6)
Injected packet length average = 1
Accepted packet length average = 1
Total in-flight flits = 0 (0 measured)
Class 12:
Packet latency average = 13.0625
	minimum = 13
	maximum = 14
Network latency average = 12.0625
	minimum = 12
	maximum = 13
Slowest packet = 12
Flit latency average = 12.0625
	minimum = 12
	maximum = 13
Slowest flit = 287
Fragmentation average = 0
	minimum = 0
	maximum = 0
Injected packet rate average = 0.0005
	minimum = 0 (at node 0)
	maximum = 0.008 (at node 6)
Accepted packet rate average = 0.0005
	minimum = 0 (at node 0)
	maximum = 0.008 (at node 5)
Injected flit rate average = 0.0005
	minimum = 0 (at node 0)
	maximum = 0.008 (at node 6)
Accepted flit rate average= 0.0005
	minimum = 0 (at node 0)
	maximum = 0.008 (at node 5)
Injected packet length average = 1
Accepted packet length average = 1
Total in-flight flits = 0 (0 measured)
Class 13:
Packet latency average = 22.0025
	minimum = 22
	maximum = 24
Network latency average = 22.0025
	minimum = 22
	maximum = 24
Slowest packet = 10525
Flit latency average = 22.0025
	minimum = 22
	maximum = 24
Slowest flit = 10525
Fragmentation average = 0
	minimum = 0
	maximum = 0
Injected packet rate average = 0.0005
	minimum = 0 (at node 0)
	maximum = 0.008 (at node 6)
Accepted packet rate average = 0.0005
	minimum = 0 (at node 0)
	maximum = 0.008 (at node 15)
Injected flit rate average = 0.0005
	minimum = 0 (at node 0)
	maximum = 0.008 (at node 6)
Accepted flit rate average= 0.0005
	minimum = 0 (at node 0)
	maximum = 0.008 (at node 15)
Injected packet length average = 1
Accepted packet length average = 1
Total in-flight flits = 0 (0 measured)
Class 14:
Packet latency average = 12
	minimum = 12
	maximum = 12
Network latency average = 12
	minimum = 12
	maximum = 12
Slowest packet = 14
Flit latency average = 12
	minimum = 12
	maximum = 12
Slowest flit = 14
Fragmentation average = 0
	minimum = 0
	maximum = 0
Injected packet rate average = 0.0005
	minimum = 0 (at node 0)
	maximum = 0.008 (at node 8)
Accepted packet rate average = 0.0005
	minimum = 0 (at node 0)
	maximum = 0.008 (at node 12)
Injected flit rate average = 0.0005
	minimum = 0 (at node 0)
	maximum = 0.008 (at node 8)
Accepted flit rate average= 0.0005
	minimum = 0 (at node 0)
	maximum = 0.008 (at node 12)
Injected packet length average = 1
Accepted packet length average = 1
Total in-flight flits = 0 (0 measured)
Class 15:
Packet latency average = 12
	minimum = 12
	maximum = 12
Network latency average = 12
	minimum = 12
	maximum = 12
Slowest packet = 15
Flit latency average = 12
	minimum = 12
	maximum = 12
Slowest flit = 15
Fragmentation average = 0
	minimum = 0
	maximum = 0
Injected packet rate average = 0.0005
	minimum = 0 (at node 0)
	maximum = 0.008 (at node 9)
Accepted packet rate average = 0.0005
	minimum = 0 (at node 0)
	maximum = 0.008 (at node 13)
Injected flit rate average = 0.0005
	minimum = 0 (at node 0)
	maximum = 0.008 (at node 9)
Accepted flit rate average= 0.0005
	minimum = 0 (at node 0)
	maximum = 0.008 (at node 13)
Injected packet length average = 1
Accepted packet length average = 1
Total in-flight flits = 0 (0 measured)
Class 16:
Packet latency average = 12
	minimum = 12
	maximum = 12
Network latency average = 12
	minimum = 12
	maximum = 12
Slowest packet = 16
Flit latency average = 12
	minimum = 12
	maximum = 12
Slowest flit = 16
Fragmentation average = 0
	minimum = 0
	maximum = 0
Injected packet rate average = 0.0005
	minimum = 0 (at node 0)
	maximum = 0.008 (at node 10)
Accepted packet rate average = 0.0005
	minimum = 0 (at node 0)
	maximum = 0.008 (at node 14)
Injected flit rate average = 0.0005
	minimum = 0 (at node 0)
	maximum = 0.008 (at node 10)
Accepted flit rate average= 0.0005
	minimum = 0 (at node 0)
	maximum = 0.008 (at node 14)
Injected packet length average = 1
Accepted packet length average = 1
Total in-flight flits = 0 (0 measured)
Class 17:
Packet latency average = 12.0325
	minimum = 12
	maximum = 13
Network latency average = 12.0013
	minimum = 12
	maximum = 13
Slowest packet = 17
Flit latency average = 12.0013
	minimum = 12
	maximum = 13
Slowest flit = 22844
Fragmentation average = 0
	minimum = 0
	maximum = 0
Injected packet rate average = 0.0005
	minimum = 0 (at node 0)
	maximum = 0.008 (at node 11)
Accepted packet rate average = 0.0005
	minimum = 0 (at node 0)
	maximum = 0.008 (at node 7)
Injected flit rate average = 0.0005
	minimum = 0 (at node 0)
	maximum = 0.008 (at node 11)
Accepted flit rate average= 0.0005
	minimum = 0 (at node 0)
	maximum = 0.008 (at node 7)
Injected packet length average = 1
Accepted packet length average = 1
Total in-flight flits = 0 (0 measured)
Class 18:
Packet latency average = 12.0416
	minimum = 12
	maximum = 14
Network latency average = 12.0416
	minimum = 12
	maximum = 14
Slowest packet = 994
Flit latency average = 12.0416
	minimum = 12
	maximum = 14
Slowest flit = 994
Fragmentation average = 0
	minimum = 0
	maximum = 0
Injected packet rate average = 0.00195312
	minimum = 0 (at node 0)
	maximum = 0.03125 (at node 11)
Accepted packet rate average = 0.00195312
	minimum = 0 (at node 0)
	maximum = 0.03125 (at node 15)
Injected flit rate average = 0.00195312
	minimum = 0 (at node 0)
	maximum = 0.03125 (at node 11)
Accepted flit rate average= 0.00195312
	minimum = 0 (at node 0)
	maximum = 0.03125 (at node 15)
Injected packet length average = 1
Accepted packet length average = 1
Total in-flight flits = 0 (0 measured)
Class 19:
Packet latency average = 12.0625
	minimum = 12
	maximum = 13
Network latency average = 12.0625
	minimum = 12
	maximum = 13
Slowest packet = 19
Flit latency average = 12.0625
	minimum = 12
	maximum = 13
Slowest flit = 19
Fragmentation average = 0
	minimum = 0
	maximum = 0
Injected packet rate average = 0.0005
	minimum = 0 (at node 0)
	maximum = 0.008 (at node 12)
Accepted packet rate average = 0.0005
	minimum = 0 (at node 0)
	maximum = 0.008 (at node 8)
Injected flit rate average = 0.0005
	minimum = 0 (at node 0)
	maximum = 0.008 (at node 12)
Accepted flit rate average= 0.0005
	minimum = 0 (at node 0)
	maximum = 0.008 (at node 8)
Injected packet length average = 1
Accepted packet length average = 1
Total in-flight flits = 0 (0 measured)
Class 20:
Packet latency average = 23
	minimum = 23
	maximum = 23
Network latency average = 22
	minimum = 22
	maximum = 22
Slowest packet = 20
Flit latency average = 22
	minimum = 22
	maximum = 22
Slowest flit = 20
Fragmentation average = 0
	minimum = 0
	maximum = 0
Injected packet rate average = 0.0005
	minimum = 0 (at node 0)
	maximum = 0.008 (at node 12)
Accepted packet rate average = 0.0005
	minimum = 0 (at node 0)
	maximum = 0.008 (at node 15)
Injected flit rate average = 0.0005
	minimum = 0 (at node 0)
	maximum = 0.008 (at node 12)
Accepted flit rate average= 0.0005
	minimum = 0 (at node 0)
	maximum = 0.008 (at node 15)
Injected packet length average = 1
Accepted packet length average = 1
Total in-flight flits = 0 (0 measured)
Class 21:
Packet latency average = 12.0625
	minimum = 12
	maximum = 13
Network latency average = 12.0625
	minimum = 12
	maximum = 13
Slowest packet = 984
Flit latency average = 12.0625
	minimum = 12
	maximum = 13
Slowest flit = 984
Fragmentation average = 0
	minimum = 0
	maximum = 0
Injected packet rate average = 0.0005
	minimum = 0 (at node 0)
	maximum = 0.008 (at node 13)
Accepted packet rate average = 0.0005
	minimum = 0 (at node 0)
	maximum = 0.008 (at node 9)
Injected flit rate average = 0.0005
	minimum = 0 (at node 0)
	maximum = 0.008 (at node 13)
Accepted flit rate average= 0.0005
	minimum = 0 (at node 0)
	maximum = 0.008 (at node 9)
Injected packet length average = 1
Accepted packet length average = 1
Total in-flight flits = 0 (0 measured)
Class 22:
Packet latency average = 18
	minimum = 18
	maximum = 18
Network latency average = 17
	minimum = 17
	maximum = 17
Slowest packet = 22
Flit latency average = 17
	minimum = 17
	maximum = 17
Slowest flit = 22
Fragmentation average = 0
	minimum = 0
	maximum = 0
Injected packet rate average = 0.0005
	minimum = 0 (at node 0)
	maximum = 0.008 (at node 13)
Accepted packet rate average = 0.0005
	minimum = 0 (at node 0)
	maximum = 0.008 (at node 15)
Injected flit rate average = 0.0005
	minimum = 0 (at node 0)
	maximum = 0.008 (at node 13)
Accepted flit rate average= 0.0005
	minimum = 0 (at node 0)
	maximum = 0.008 (at node 15)
Injected packet length average = 1
Accepted packet length average = 1
Total in-flight flits = 0 (0 measured)
Class 23:
Packet latency average = 12.0625
	minimum = 12
	maximum = 13
Network latency average = 12.0625
	minimum = 12
	maximum = 13
Slowest packet = 847
Flit latency average = 12.0625
	minimum = 12
	maximum = 13
Slowest flit = 847
Fragmentation average = 0
	minimum = 0
	maximum = 0
Injected packet rate average = 0.0005
	minimum = 0 (at node 0)
	maximum = 0.008 (at node 14)
Accepted packet rate average = 0.0005
	minimum = 0 (at node 0)
	maximum = 0.008 (at node 10)
Injected flit rate average = 0.0005
	minimum = 0 (at node 0)
	maximum = 0.008 (at node 14)
Accepted flit rate average= 0.0005
	minimum = 0 (at node 0)
	maximum = 0.008 (at node 10)
Injected packet length average = 1
Accepted packet length average = 1
Total in-flight flits = 0 (0 measured)
Class 24:
Packet latency average = 13
	minimum = 13
	maximum = 13
Network latency average = 12
	minimum = 12
	maximum = 12
Slowest packet = 24
Flit latency average = 12
	minimum = 12
	maximum = 12
Slowest flit = 24
Fragmentation average = 0
	minimum = 0
	maximum = 0
Injected packet rate average = 0.0005
	minimum = 0 (at node 0)
	maximum = 0.008 (at node 14)
Accepted packet rate average = 0.0005
	minimum = 0 (at node 0)
	maximum = 0.008 (at node 15)
Injected flit rate average = 0.0005
	minimum = 0 (at node 0)
	maximum = 0.008 (at node 14)
Accepted flit rate average= 0.0005
	minimum = 0 (at node 0)
	maximum = 0.008 (at node 15)
Injected packet length average = 1
Accepted packet length average = 1
Total in-flight flits = 0 (0 measured)
Class 25:
Packet latency average = 12
	minimum = 12
	maximum = 12
Network latency average = 12
	minimum = 12
	maximum = 12
Slowest packet = 25
Flit latency average = 12
	minimum = 12
	maximum = 12
Slowest flit = 25
Fragmentation average = 0
	minimum = 0
	maximum = 0
Injected packet rate average = 0.00195312
	minimum = 0 (at node 0)
	maximum = 0.03125 (at node 15)
Accepted packet rate average = 0.00195312
	minimum = 0 (at node 0)
	maximum = 0.03125 (at node 11)
Injected flit rate average = 0.00195312
	minimum = 0 (at node 0)
	maximum = 0.03125 (at node 15)
Accepted flit rate average= 0.00195312
	minimum = 0 (at node 0)
	maximum = 0.03125 (at node 11)
Injected packet length average = 1
Accepted packet length average = 1
Total in-flight flits = 0 (0 measured)
latency change    = 1
throughput change = 1
latency change    = 1
throughput change = 1
latency change    = 1
throughput change = 1
latency change    = 1
throughput change = 1
latency change    = 1
throughput change = 1
latency change    = 1
throughput change = 1
latency change    = 1
throughput change = 1
latency change    = 1
throughput change = 1
latency change    = 1
throughput change = 1
latency change    = 1
throughput change = 1
latency change    = 1
throughput change = 1
latency change    = 1
throughput change = 1
latency change    = 1
throughput change = 1
latency change    = 1
throughput change = 1
latency change    = 1
throughput change = 1
latency change    = 1
throughput change = 1
latency change    = 1
throughput change = 1
latency change    = 1
throughput change = 1
latency change    = 1
throughput change = 1
latency change    = 1
throughput change = 1
latency change    = 1
throughput change = 1
latency change    = 1
throughput change = 1
latency change    = 1
throughput change = 1
latency change    = 1
throughput change = 1
latency change    = 1
throughput change = 1
latency change    = 1
throughput change = 1
Class 0:
Packet latency average = 17
	minimum = 17
	maximum = 17
Network latency average = 17
	minimum = 17
	maximum = 17
Slowest packet = 0
Flit latency average = 17
	minimum = 17
	maximum = 17
Slowest flit = 0
Fragmentation average = 0
	minimum = 0
	maximum = 0
Injected packet rate average = 0.000125
	minimum = 0 (at node 0)
	maximum = 0.002 (at node 1)
Accepted packet rate average = 0.000125
	minimum = 0 (at node 0)
	maximum = 0.002 (at node 3)
Injected flit rate average = 0.000125
	minimum = 0 (at node 0)
	maximum = 0.002 (at node 1)
Accepted flit rate average= 0.000125
	minimum = 0 (at node 0)
	maximum = 0.002 (at node 3)
Injected packet length average = 1
Accepted packet length average = 1
Total in-flight flits = 0 (0 measured)
Class 1:
Packet latency average = 12
	minimum = 12
	maximum = 12
Network latency average = 12
	minimum = 12
	maximum = 12
Slowest packet = 1
Flit latency average = 12
	minimum = 12
	maximum = 12
Slowest flit = 1
Fragmentation average = 0
	minimum = 0
	maximum = 0
Injected packet rate average = 0.000125
	minimum = 0 (at node 0)
	maximum = 0.002 (at node 2)
Accepted packet rate average = 0.000125
	minimum = 0 (at node 0)
	maximum = 0.002 (at node 3)
Injected flit rate average = 0.000125
	minimum = 0 (at node 0)
	maximum = 0.002 (at node 2)
Accepted flit rate average= 0.000125
	minimum = 0 (at node 0)
	maximum = 0.002 (at node 3)
Injected packet length average = 1
Accepted packet length average = 1
Total in-flight flits = 0 (0 measured)
Class 2:
Packet latency average = 17
	minimum = 17
	maximum = 17
Network latency average = 17
	minimum = 17
	maximum = 17
Slowest packet = 2
Flit latency average = 17
	minimum = 17
	maximum = 17
Slowest flit = 2
Fragmentation average = 0
	minimum = 0
	maximum = 0
Injected packet rate average = 0.000125
	minimum = 0 (at node 0)
	maximum = 0.002 (at node 3)
Accepted packet rate average = 0.000125
	minimum = 0 (at node 0)
	maximum = 0.002 (at node 1)
Injected flit rate average = 0.000125
	minimum = 0 (at node 0)
	maximum = 0.002 (at node 3)
Accepted flit rate average= 0.000125
	minimum = 0 (at node 0)
	maximum = 0.002 (at node 1)
Injected packet length average = 1
Accepted packet length average = 1
Total in-flight flits = 0 (0 measured)
Class 3:
Packet latency average = 13
	minimum = 13
	maximum = 13
Network latency average = 12
	minimum = 12
	maximum = 12
Slowest packet = 3
Flit latency average = 12
	minimum = 12
	maximum = 12
Slowest flit = 3
Fragmentation average = 0
	minimum = 0
	maximum = 0
Injected packet rate average = 0.000125
	minimum = 0 (at node 0)
	maximum = 0.002 (at node 3)
Accepted packet rate average = 0.000125
	minimum = 0 (at node 0)
	maximum = 0.002 (at node 2)
Injected flit rate average = 0.000125
	minimum = 0 (at node 0)
	maximum = 0.002 (at node 3)
Accepted flit rate average= 0.000125
	minimum = 0 (at node 0)
	maximum = 0.002 (at node 2)
Injected packet length average = 1
Accepted packet length average = 1
Total in-flight flits = 0 (0 measured)
Class 4:
Packet latency average = 12.0179
	minimum = 12
	maximum = 14
Network latency average = 12
	minimum = 12
	maximum = 12
Slowest packet = 4
Flit latency average = 12
	minimum = 12
	maximum = 12
Slowest flit = 4
Fragmentation average = 0
	minimum = 0
	maximum = 0
Injected packet rate average = 0.000244375
	minimum = 0 (at node 0)
	maximum = 0.00391 (at node 3)
Accepted packet rate average = 0.000244375
	minimum = 0 (at node 0)
	maximum = 0.00391 (at node 7)
Injected flit rate average = 0.000244375
	minimum = 0 (at node 0)
	maximum = 0.00391 (at node 3)
Accepted flit rate average= 0.000244375
	minimum = 0 (at node 0)
	maximum = 0.00391 (at node 7)
Injected packet length average = 1
Accepted packet length average = 1
Total in-flight flits = 0 (0 measured)
Class 5:
Packet latency average = 20.0002
	minimum = 20
	maximum = 21
Network latency average = 17.0002
	minimum = 17
	maximum = 18
Slowest packet = 5
Flit latency average = 17.0002
	minimum = 17
	maximum = 18
Slowest flit = 5
Fragmentation average = 0
	minimum = 0
	maximum = 0
Injected packet rate average = 0.00390625
	minimum = 0 (at node 0)
	maximum = 0.0625 (at node 4)
Accepted packet rate average = 0.00390594
	minimum = 0 (at node 0)
	maximum = 0.062495 (at node 1)
Injected flit rate average = 0.00390625
	minimum = 0 (at node 0)
	maximum = 0.0625 (at node 4)
Accepted flit rate average= 0.00390594
	minimum = 0 (at node 0)
	maximum = 0.062495 (at node 1)
Injected packet length average = 1
Accepted packet length average = 1
Total in-flight flits = 1 (0 measured)
Class 6:
Packet latency average = 26.0046
	minimum = 26
	maximum = 28
Network latency average = 22.0046
	minimum = 22
	maximum = 24
Slowest packet = 6
Flit latency average = 22.0046
	minimum = 22
	maximum = 24
Slowest flit = 27
Fragmentation average = 0
	minimum = 0
	maximum = 0
Injected packet rate average = 0.00390625
	minimum = 0 (at node 0)
	maximum = 0.0625 (at node 4)
Accepted packet rate average = 0.00390594
	minimum = 0 (at node 0)
	maximum = 0.062495 (at node 2)
Injected flit rate average = 0.00390625
	minimum = 0 (at node 0)
	maximum = 0.0625 (at node 4)
Accepted flit rate average= 0.00390594
	minimum = 0 (at node 0)
	maximum = 0.062495 (at node 2)
Injected packet length average = 1
Accepted packet length average = 1
Total in-flight flits = 1 (0 measured)
Class 7:
Packet latency average = 17.0002
	minimum = 17
	maximum = 19
Network latency average = 12.0002
	minimum = 12
	maximum = 14
Slowest packet = 7
Flit latency average = 12.0002
	minimum = 12
	maximum = 14
Slowest flit = 7
Fragmentation average = 0
	minimum = 0
	maximum = 0
Injected packet rate average = 0.00390625
	minimum = 0 (at node 0)
	maximum = 0.0625 (at node 4)
Accepted packet rate average = 0.00390594
	minimum = 0 (at node 0)
	maximum = 0.062495 (at node 5)
Injected flit rate average = 0.00390625
	minimum = 0 (at node 0)
	maximum = 0.0625 (at node 4)
Accepted flit rate average= 0.00390594
	minimum = 0 (at node 0)
	maximum = 0.062495 (at node 5)
Injected packet length average = 1
Accepted packet length average = 1
Total in-flight flits = 1 (0 measured)
Class 8:
Packet latency average = 12
	minimum = 12
	maximum = 12
Network latency average = 12
	minimum = 12
	maximum = 12
Slowest packet = 8
Flit latency average = 12
	minimum = 12
	maximum = 12
Slowest flit = 8
Fragmentation average = 0
	minimum = 0
	maximum = 0
Injected packet rate average = 0.00390625
	minimum = 0 (at node 0)
	maximum = 0.0625 (at node 4)
Accepted packet rate average = 0.00390625
	minimum = 0 (at node 0)
	maximum = 0.0625 (at node 8)
Injected flit rate average = 0.00390625
	minimum = 0 (at node 0)
	maximum = 0.0625 (at node 4)
Accepted flit rate average= 0.00390625
	minimum = 0 (at node 0)
	maximum = 0.0625 (at node 8)
Injected packet length average = 1
Accepted packet length average = 1
Total in-flight flits = 0 (0 measured)
Class 9:
Packet latency average = 18
	minimum = 18
	maximum = 18
Network latency average = 17
	minimum = 17
	maximum = 17
Slowest packet = 9
Flit latency average = 17
	minimum = 17
	maximum = 17
Slowest flit = 9
Fragmentation average = 0
	minimum = 0
	maximum = 0
Injected packet rate average = 0.00390625
	minimum = 0 (at node 0)
	maximum = 0.0625 (at node 4)
Accepted packet rate average = 0.00390594
	minimum = 0 (at node 0)
	maximum = 0.062495 (at node 9)
Injected flit rate average = 0.00390625
	minimum = 0 (at node 0)
	maximum = 0.0625 (at node 4)
Accepted flit rate average= 0.00390594
	minimum = 0 (at node 0)
	maximum = 0.062495 (at node 9)
Injected packet length average = 1
Accepted packet length average = 1
Total in-flight flits = 1 (0 measured)
Class 10:
Packet latency average = 24.0002
	minimum = 24
	maximum = 25
Network latency average = 22.0002
	minimum = 22
	maximum = 23
Slowest packet = 10
Flit latency average = 22.0002
	minimum = 22
	maximum = 23
Slowest flit = 11697
Fragmentation average = 0
	minimum = 0
	maximum = 0
Injected packet rate average = 0.00390625
	minimum = 0 (at node 0)
	maximum = 0.0625 (at node 4)
Accepted packet rate average = 0.00390594
	minimum = 0 (at node 0)
	maximum = 0.062495 (at node 10)
Injected flit rate average = 0.00390625
	minimum = 0 (at node 0)
	maximum = 0.0625 (at node 4)
Accepted flit rate average= 0.00390594
	minimum = 0 (at node 0)
	maximum = 0.062495 (at node 10)
Injected packet length average = 1
Accepted packet length average = 1
Total in-flight flits = 1 (0 measured)
Class 11:
Packet latency average = 12.1281
	minimum = 12
	maximum = 14
Network latency average = 12.1281
	minimum = 12
	maximum = 14
Slowest packet = 489
Flit latency average = 12.1281
	minimum = 12
	maximum = 14
Slowest flit = 489
Fragmentation average = 0
	minimum = 0
	maximum = 0
Injected packet rate average = 0.0005
	minimum = 0 (at node 0)
	maximum = 0.008 (at node 5)
Accepted packet rate average = 0.0005
	minimum = 0 (at node 0)
	maximum = 0.008 (at node 6)
Injected flit rate average = 0.0005
	minimum = 0 (at node 0)
	maximum = 0.008 (at node 5)
Accepted flit rate average= 0.0005
	minimum = 0 (at node 0)
	maximum = 0.008 (at node 6)
Injected packet length average = 1
Accepted packet length average = 1
Total in-flight flits = 0 (0 measured)
Class 12:
Packet latency average = 13.0625
	minimum = 13
	maximum = 14
Network latency average = 12.0625
	minimum = 12
	maximum = 13
Slowest packet = 12
Flit latency average = 12.0625
	minimum = 12
	maximum = 13
Slowest flit = 287
Fragmentation average = 0
	minimum = 0
	maximum = 0
Injected packet rate average = 0.0005
	minimum = 0 (at node 0)
	maximum = 0.008 (at node 6)
Accepted packet rate average = 0.0005
	minimum = 0 (at node 0)
	maximum = 0.008 (at node 5)
Injected flit rate average = 0.0005
	minimum = 0 (at node 0)
	maximum = 0.008 (at node 6)
Accepted flit rate average= 0.0005
	minimum = 0 (at node 0)
	maximum = 0.008 (at node 5)
Injected packet length average = 1
Accepted packet length average = 1
Total in-flight flits = 0 (0 measured)
Class 13:
Packet latency average = 22.0012
	minimum = 22
	maximum = 24
Network latency average = 22.0012
	minimum = 22
	maximum = 24
Slowest packet = 10525
Flit latency average = 22.0012
	minimum = 22
	maximum = 24
Slowest flit = 10525
Fragmentation average = 0
	minimum = 0
	maximum = 0
Injected packet rate average = 0.0005
	minimum = 0 (at node 0)
	maximum = 0.008 (at node 6)
Accepted packet rate average = 0.0005
	minimum = 0 (at node 0)
	maximum = 0.008 (at node 15)
Injected flit rate average = 0.0005
	minimum = 0 (at node 0)
	maximum = 0.008 (at node 6)
Accepted flit rate average= 0.0005
	minimum = 0 (at node 0)
	maximum = 0.008 (at node 15)
Injected packet length average = 1
Accepted packet length average = 1
Total in-flight flits = 0 (0 measured)
Class 14:
Packet latency average = 12
	minimum = 12
	maximum = 12
Network latency average = 12
	minimum = 12
	maximum = 12
Slowest packet = 14
Flit latency average = 12
	minimum = 12
	maximum = 12
Slowest flit = 14
Fragmentation average = 0
	minimum = 0
	maximum = 0
Injected packet rate average = 0.0005
	minimum = 0 (at node 0)
	maximum = 0.008 (at node 8)
Accepted packet rate average = 0.0005
	minimum = 0 (at node 0)
	maximum = 0.008 (at node 12)
Injected flit rate average = 0.0005
	minimum = 0 (at node 0)
	maximum = 0.008 (at node 8)
Accepted flit rate average= 0.0005
	minimum = 0 (at node 0)
	maximum = 0.008 (at node 12)
Injected packet length average = 1
Accepted packet length average = 1
Total in-flight flits = 0 (0 measured)
Class 15:
Packet latency average = 12
	minimum = 12
	maximum = 12
Network latency average = 12
	minimum = 12
	maximum = 12
Slowest packet = 15
Flit latency average = 12
	minimum = 12
	maximum = 12
Slowest flit = 15
Fragmentation average = 0
	minimum = 0
	maximum = 0
Injected packet rate average = 0.0005
	minimum = 0 (at node 0)
	maximum = 0.008 (at node 9)
Accepted packet rate average = 0.0005
	minimum = 0 (at node 0)
	maximum = 0.008 (at node 13)
Injected flit rate average = 0.0005
	minimum = 0 (at node 0)
	maximum = 0.008 (at node 9)
Accepted flit rate average= 0.0005
	minimum = 0 (at node 0)
	maximum = 0.008 (at node 13)
Injected packet length average = 1
Accepted packet length average = 1
Total in-flight flits = 0 (0 measured)
Class 16:
Packet latency average = 12
	minimum = 12
	maximum = 12
Network latency average = 12
	minimum = 12
	maximum = 12
Slowest packet = 16
Flit latency average = 12
	minimum = 12
	maximum = 12
Slowest flit = 16
Fragmentation average = 0
	minimum = 0
	maximum = 0
Injected packet rate average = 0.0005
	minimum = 0 (at node 0)
	maximum = 0.008 (at node 10)
Accepted packet rate average = 0.0005
	minimum = 0 (at node 0)
	maximum = 0.008 (at node 14)
Injected flit rate average = 0.0005
	minimum = 0 (at node 0)
	maximum = 0.008 (at node 10)
Accepted flit rate average= 0.0005
	minimum = 0 (at node 0)
	maximum = 0.008 (at node 14)
Injected packet length average = 1
Accepted packet length average = 1
Total in-flight flits = 0 (0 measured)
Class 17:
Packet latency average = 12.0325
	minimum = 12
	maximum = 13
Network latency average = 12.0013
	minimum = 12
	maximum = 13
Slowest packet = 17
Flit latency average = 12.0013
	minimum = 12
	maximum = 13
Slowest flit = 22844
Fragmentation average = 0
	minimum = 0
	maximum = 0
Injected packet rate average = 0.0005
	minimum = 0 (at node 0)
	maximum = 0.008 (at node 11)
Accepted packet rate average = 0.0005
	minimum = 0 (at node 0)
	maximum = 0.008 (at node 7)
Injected flit rate average = 0.0005
	minimum = 0 (at node 0)
	maximum = 0.008 (at node 11)
Accepted flit rate average= 0.0005
	minimum = 0 (at node 0)
	maximum = 0.008 (at node 7)
Injected packet length average = 1
Accepted packet length average = 1
Total in-flight flits = 0 (0 measured)
Class 18:
Packet latency average = 12.041
	minimum = 12
	maximum = 14
Network latency average = 12.041
	minimum = 12
	maximum = 14
Slowest packet = 994
Flit latency average = 12.041
	minimum = 12
	maximum = 14
Slowest flit = 994
Fragmentation average = 0
	minimum = 0
	maximum = 0
Injected packet rate average = 0.00195312
	minimum = 0 (at node 0)
	maximum = 0.03125 (at node 11)
Accepted packet rate average = 0.00195312
	minimum = 0 (at node 0)
	maximum = 0.03125 (at node 15)
Injected flit rate average = 0.00195312
	minimum = 0 (at node 0)
	maximum = 0.03125 (at node 11)
Accepted flit rate average= 0.00195312
	minimum = 0 (at node 0)
	maximum = 0.03125 (at node 15)
Injected packet length average = 1
Accepted packet length average = 1
Total in-flight flits = 0 (0 measured)
Class 19:
Packet latency average = 12.0625
	minimum = 12
	maximum = 13
Network latency average = 12.0625
	minimum = 12
	maximum = 13
Slowest packet = 19
Flit latency average = 12.0625
	minimum = 12
	maximum = 13
Slowest flit = 19
Fragmentation average = 0
	minimum = 0
	maximum = 0
Injected packet rate average = 0.0005
	minimum = 0 (at node 0)
	maximum = 0.008 (at node 12)
Accepted packet rate average = 0.0005
	minimum = 0 (at node 0)
	maximum = 0.008 (at node 8)
Injected flit rate average = 0.0005
	minimum = 0 (at node 0)
	maximum = 0.008 (at node 12)
Accepted flit rate average= 0.0005
	minimum = 0 (at node 0)
	maximum = 0.008 (at node 8)
Injected packet length average = 1
Accepted packet length average = 1
Total in-flight flits = 0 (0 measured)
Class 20:
Packet latency average = 23
	minimum = 23
	maximum = 23
Network latency average = 22
	minimum = 22
	maximum = 22
Slowest packet = 20
Flit latency average = 22
	minimum = 22
	maximum = 22
Slowest flit = 20
Fragmentation average = 0
	minimum = 0
	maximum = 0
Injected packet rate average = 0.0005
	minimum = 0 (at node 0)
	maximum = 0.008 (at node 12)
Accepted packet rate average = 0.0005
	minimum = 0 (at node 0)
	maximum = 0.008 (at node 15)
Injected flit rate average = 0.0005
	minimum = 0 (at node 0)
	maximum = 0.008 (at node 12)
Accepted flit rate average= 0.0005
	minimum = 0 (at node 0)
	maximum = 0.008 (at node 15)
Injected packet length average = 1
Accepted packet length average = 1
Total in-flight flits = 0 (0 measured)
Class 21:
Packet latency average = 12.0625
	minimum = 12
	maximum = 13
Network latency average = 12.0625
	minimum = 12
	maximum = 13
Slowest packet = 984
Flit latency average = 12.0625
	minimum = 12
	maximum = 13
Slowest flit = 984
Fragmentation average = 0
	minimum = 0
	maximum = 0
Injected packet rate average = 0.0005
	minimum = 0 (at node 0)
	maximum = 0.008 (at node 13)
Accepted packet rate average = 0.0005
	minimum = 0 (at node 0)
	maximum = 0.008 (at node 9)
Injected flit rate average = 0.0005
	minimum = 0 (at node 0)
	maximum = 0.008 (at node 13)
Accepted flit rate average= 0.0005
	minimum = 0 (at node 0)
	maximum = 0.008 (at node 9)
Injected packet length average = 1
Accepted packet length average = 1
Total in-flight flits = 0 (0 measured)
Class 22:
Packet latency average = 18
	minimum = 18
	maximum = 18
Network latency average = 17
	minimum = 17
	maximum = 17
Slowest packet = 22
Flit latency average = 17
	minimum = 17
	maximum = 17
Slowest flit = 22
Fragmentation average = 0
	minimum = 0
	maximum = 0
Injected packet rate average = 0.0005
	minimum = 0 (at node 0)
	maximum = 0.008 (at node 13)
Accepted packet rate average = 0.0005
	minimum = 0 (at node 0)
	maximum = 0.008 (at node 15)
Injected flit rate average = 0.0005
	minimum = 0 (at node 0)
	maximum = 0.008 (at node 13)
Accepted flit rate average= 0.0005
	minimum = 0 (at node 0)
	maximum = 0.008 (at node 15)
Injected packet length average = 1
Accepted packet length average = 1
Total in-flight flits = 0 (0 measured)
Class 23:
Packet latency average = 12.0625
	minimum = 12
	maximum = 13
Network latency average = 12.0625
	minimum = 12
	maximum = 13
Slowest packet = 847
Flit latency average = 12.0625
	minimum = 12
	maximum = 13
Slowest flit = 847
Fragmentation average = 0
	minimum = 0
	maximum = 0
Injected packet rate average = 0.0005
	minimum = 0 (at node 0)
	maximum = 0.008 (at node 14)
Accepted packet rate average = 0.0005
	minimum = 0 (at node 0)
	maximum = 0.008 (at node 10)
Injected flit rate average = 0.0005
	minimum = 0 (at node 0)
	maximum = 0.008 (at node 14)
Accepted flit rate average= 0.0005
	minimum = 0 (at node 0)
	maximum = 0.008 (at node 10)
Injected packet length average = 1
Accepted packet length average = 1
Total in-flight flits = 0 (0 measured)
Class 24:
Packet latency average = 13
	minimum = 13
	maximum = 13
Network latency average = 12
	minimum = 12
	maximum = 12
Slowest packet = 24
Flit latency average = 12
	minimum = 12
	maximum = 12
Slowest flit = 24
Fragmentation average = 0
	minimum = 0
	maximum = 0
Injected packet rate average = 0.0005
	minimum = 0 (at node 0)
	maximum = 0.008 (at node 14)
Accepted packet rate average = 0.0005
	minimum = 0 (at node 0)
	maximum = 0.008 (at node 15)
Injected flit rate average = 0.0005
	minimum = 0 (at node 0)
	maximum = 0.008 (at node 14)
Accepted flit rate average= 0.0005
	minimum = 0 (at node 0)
	maximum = 0.008 (at node 15)
Injected packet length average = 1
Accepted packet length average = 1
Total in-flight flits = 0 (0 measured)
Class 25:
Packet latency average = 12
	minimum = 12
	maximum = 12
Network latency average = 12
	minimum = 12
	maximum = 12
Slowest packet = 25
Flit latency average = 12
	minimum = 12
	maximum = 12
Slowest flit = 25
Fragmentation average = 0
	minimum = 0
	maximum = 0
Injected packet rate average = 0.00195312
	minimum = 0 (at node 0)
	maximum = 0.03125 (at node 15)
Accepted packet rate average = 0.00195312
	minimum = 0 (at node 0)
	maximum = 0.03125 (at node 11)
Injected flit rate average = 0.00195312
	minimum = 0 (at node 0)
	maximum = 0.03125 (at node 15)
Accepted flit rate average= 0.00195312
	minimum = 0 (at node 0)
	maximum = 0.03125 (at node 11)
Injected packet length average = 1
Accepted packet length average = 1
Total in-flight flits = 0 (0 measured)
latency change    = 0
throughput change = 0
latency change    = 0
throughput change = 0
latency change    = 0
throughput change = 0
latency change    = 0
throughput change = 0
latency change    = 0.000212811
throughput change = 0
latency change    = 8.00186e-06
throughput change = 8.00064e-05
latency change    = 0.000175396
throughput change = 8.00064e-05
latency change    = 9.41394e-06
throughput change = 8.00064e-05
latency change    = 0
throughput change = 0
latency change    = 0
throughput change = 8.00064e-05
latency change    = 6.66822e-06
throughput change = 8.00064e-05
latency change    = 0.000154599
throughput change = 0
latency change    = 0
throughput change = 0
latency change    = 5.6815e-05
throughput change = 0
latency change    = 0
throughput change = 0
latency change    = 0
throughput change = 0
latency change    = 0
throughput change = 0
latency change    = 0
throughput change = 0
latency change    = 5.31519e-05
throughput change = 0
latency change    = 0
throughput change = 0
latency change    = 0
throughput change = 0
latency change    = 0
throughput change = 0
latency change    = 0
throughput change = 0
latency change    = 0
throughput change = 0
latency change    = 0
throughput change = 0
latency change    = 0
throughput change = 0
Class 0:
Packet latency average = 17
	minimum = 17
	maximum = 17
Network latency average = 17
	minimum = 17
	maximum = 17
Slowest packet = 110682
Flit latency average = 17
	minimum = 17
	maximum = 17
Slowest flit = 110682
Fragmentation average = 0
	minimum = 0
	maximum = 0
Injected packet rate average = 0.000125
	minimum = 0 (at node 0)
	maximum = 0.002 (at node 1)
Accepted packet rate average = 0.000125
	minimum = 0 (at node 0)
	maximum = 0.002 (at node 3)
Injected flit rate average = 0.000125
	minimum = 0 (at node 0)
	maximum = 0.002 (at node 1)
Accepted flit rate average= 0.000125
	minimum = 0 (at node 0)
	maximum = 0.002 (at node 3)
Injected packet length average = 1
Accepted packet length average = 1
Total in-flight flits = 0 (0 measured)
Class 1:
Packet latency average = 12
	minimum = 12
	maximum = 12
Network latency average = 12
	minimum = 12
	maximum = 12
Slowest packet = 110683
Flit latency average = 12
	minimum = 12
	maximum = 12
Slowest flit = 110683
Fragmentation average = 0
	minimum = 0
	maximum = 0
Injected packet rate average = 0.000125
	minimum = 0 (at node 0)
	maximum = 0.002 (at node 2)
Accepted packet rate average = 0.000125
	minimum = 0 (at node 0)
	maximum = 0.002 (at node 3)
Injected flit rate average = 0.000125
	minimum = 0 (at node 0)
	maximum = 0.002 (at node 2)
Accepted flit rate average= 0.000125
	minimum = 0 (at node 0)
	maximum = 0.002 (at node 3)
Injected packet length average = 1
Accepted packet length average = 1
Total in-flight flits = 0 (0 measured)
Class 2:
Packet latency average = 17
	minimum = 17
	maximum = 17
Network latency average = 17
	minimum = 17
	maximum = 17
Slowest packet = 110684
Flit latency average = 17
	minimum = 17
	maximum = 17
Slowest flit = 110684
Fragmentation average = 0
	minimum = 0
	maximum = 0
Injected packet rate average = 0.000125
	minimum = 0 (at node 0)
	maximum = 0.002 (at node 3)
Accepted packet rate average = 0.000125
	minimum = 0 (at node 0)
	maximum = 0.002 (at node 1)
Injected flit rate average = 0.000125
	minimum = 0 (at node 0)
	maximum = 0.002 (at node 3)
Accepted flit rate average= 0.000125
	minimum = 0 (at node 0)
	maximum = 0.002 (at node 1)
Injected packet length average = 1
Accepted packet length average = 1
Total in-flight flits = 0 (0 measured)
Class 3:
Packet latency average = 13
	minimum = 13
	maximum = 13
Network latency average = 12
	minimum = 12
	maximum = 12
Slowest packet = 110685
Flit latency average = 12
	minimum = 12
	maximum = 12
Slowest flit = 110685
Fragmentation average = 0
	minimum = 0
	maximum = 0
Injected packet rate average = 0.000125
	minimum = 0 (at node 0)
	maximum = 0.002 (at node 3)
Accepted packet rate average = 0.000125
	minimum = 0 (at node 0)
	maximum = 0.002 (at node 2)
Injected flit rate average = 0.000125
	minimum = 0 (at node 0)
	maximum = 0.002 (at node 3)
Accepted flit rate average= 0.000125
	minimum = 0 (at node 0)
	maximum = 0.002 (at node 2)
Injected packet length average = 1
Accepted packet length average = 1
Total in-flight flits = 0 (0 measured)
Class 4:
Packet latency average = 12.0171
	minimum = 12
	maximum = 14
Network latency average = 12
	minimum = 12
	maximum = 12
Slowest packet = 110796
Flit latency average = 12
	minimum = 12
	maximum = 12
Slowest flit = 110796
Fragmentation average = 0
	minimum = 0
	maximum = 0
Injected packet rate average = 0.00024375
	minimum = 0 (at node 0)
	maximum = 0.0039 (at node 3)
Accepted packet rate average = 0.00024375
	minimum = 0 (at node 0)
	maximum = 0.0039 (at node 7)
Injected flit rate average = 0.00024375
	minimum = 0 (at node 0)
	maximum = 0.0039 (at node 3)
Accepted flit rate average= 0.00024375
	minimum = 0 (at node 0)
	maximum = 0.0039 (at node 7)
Injected packet length average = 1
Accepted packet length average = 1
Total in-flight flits = 0 (0 measured)
Class 5:
Packet latency average = 20.0001
	minimum = 20
	maximum = 21
Network latency average = 17
	minimum = 17
	maximum = 17
Slowest packet = 110676
Flit latency average = 17
	minimum = 17
	maximum = 17
Slowest flit = 110676
Fragmentation average = 0
	minimum = 0
	maximum = 0
Injected packet rate average = 0.00390625
	minimum = 0 (at node 0)
	maximum = 0.0625 (at node 4)
Accepted packet rate average = 0.00390625
	minimum = 0 (at node 0)
	maximum = 0.0625 (at node 1)
Injected flit rate average = 0.00390625
	minimum = 0 (at node 0)
	maximum = 0.0625 (at node 4)
Accepted flit rate average= 0.00390625
	minimum = 0 (at node 0)
	maximum = 0.0625 (at node 1)
Injected packet length average = 1
Accepted packet length average = 1
Total in-flight flits = 1 (0 measured)
Class 6:
Packet latency average = 26.003
	minimum = 26
	maximum = 28
Network latency average = 22
	minimum = 22
	maximum = 22
Slowest packet = 110677
Flit latency average = 22
	minimum = 22
	maximum = 22
Slowest flit = 110677
Fragmentation average = 0
	minimum = 0
	maximum = 0
Injected packet rate average = 0.00390625
	minimum = 0 (at node 0)
	maximum = 0.0625 (at node 4)
Accepted packet rate average = 0.00390625
	minimum = 0 (at node 0)
	maximum = 0.0625 (at node 2)
Injected flit rate average = 0.00390625
	minimum = 0 (at node 0)
	maximum = 0.0625 (at node 4)
Accepted flit rate average= 0.00390625
	minimum = 0 (at node 0)
	maximum = 0.0625 (at node 2)
Injected packet length average = 1
Accepted packet length average = 1
Total in-flight flits = 1 (0 measured)
Class 7:
Packet latency average = 17.0001
	minimum = 17
	maximum = 19
Network latency average = 12
	minimum = 12
	maximum = 12
Slowest packet = 110678
Flit latency average = 12
	minimum = 12
	maximum = 12
Slowest flit = 110678
Fragmentation average = 0
	minimum = 0
	maximum = 0
Injected packet rate average = 0.00390625
	minimum = 0 (at node 0)
	maximum = 0.0625 (at node 4)
Accepted packet rate average = 0.00390625
	minimum = 0 (at node 0)
	maximum = 0.0625 (at node 5)
Injected flit rate average = 0.00390625
	minimum = 0 (at node 0)
	maximum = 0.0625 (at node 4)
Accepted flit rate average= 0.00390625
	minimum = 0 (at node 0)
	maximum = 0.0625 (at node 5)
Injected packet length average = 1
Accepted packet length average = 1
Total in-flight flits = 1 (0 measured)
Class 8:
Packet latency average = 12
	minimum = 12
	maximum = 12
Network latency average = 12
	minimum = 12
	maximum = 12
Slowest packet = 110689
Flit latency average = 12
	minimum = 12
	maximum = 12
Slowest flit = 110689
Fragmentation average = 0
	minimum = 0
	maximum = 0
Injected packet rate average = 0.00390625
	minimum = 0 (at node 0)
	maximum = 0.0625 (at node 4)
Accepted packet rate average = 0.00390625
	minimum = 0 (at node 0)
	maximum = 0.0625 (at node 8)
Injected flit rate average = 0.00390625
	minimum = 0 (at node 0)
	maximum = 0.0625 (at node 4)
Accepted flit rate average= 0.00390625
	minimum = 0 (at node 0)
	maximum = 0.0625 (at node 8)
Injected packet length average = 1
Accepted packet length average = 1
Total in-flight flits = 0 (0 measured)
Class 9:
Packet latency average = 18
	minimum = 18
	maximum = 18
Network latency average = 17
	minimum = 17
	maximum = 17
Slowest packet = 110680
Flit latency average = 17
	minimum = 17
	maximum = 17
Slowest flit = 110680
Fragmentation average = 0
	minimum = 0
	maximum = 0
Injected packet rate average = 0.00390625
	minimum = 0 (at node 0)
	maximum = 0.0625 (at node 4)
Accepted packet rate average = 0.00390625
	minimum = 0 (at node 0)
	maximum = 0.0625 (at node 9)
Injected flit rate average = 0.00390625
	minimum = 0 (at node 0)
	maximum = 0.0625 (at node 4)
Accepted flit rate average= 0.00390625
	minimum = 0 (at node 0)
	maximum = 0.0625 (at node 9)
Injected packet length average = 1
Accepted packet length average = 1
Total in-flight flits = 1 (0 measured)
Class 10:
Packet latency average = 24.0002
	minimum = 24
	maximum = 25
Network latency average = 22.0003
	minimum = 22
	maximum = 23
Slowest packet = 110681
Flit latency average = 22.0003
	minimum = 22
	maximum = 23
Slowest flit = 137874
Fragmentation average = 0
	minimum = 0
	maximum = 0
Injected packet rate average = 0.00390625
	minimum = 0 (at node 0)
	maximum = 0.0625 (at node 4)
Accepted packet rate average = 0.00390625
	minimum = 0 (at node 0)
	maximum = 0.0625 (at node 10)
Injected flit rate average = 0.00390625
	minimum = 0 (at node 0)
	maximum = 0.0625 (at node 4)
Accepted flit rate average= 0.00390625
	minimum = 0 (at node 0)
	maximum = 0.0625 (at node 10)
Injected packet length average = 1
Accepted packet length average = 1
Total in-flight flits = 1 (0 measured)
Class 11:
Packet latency average = 12.1275
	minimum = 12
	maximum = 14
Network latency average = 12.1263
	minimum = 12
	maximum = 13
Slowest packet = 110692
Flit latency average = 12.1263
	minimum = 12
	maximum = 13
Slowest flit = 110894
Fragmentation average = 0
	minimum = 0
	maximum = 0
Injected packet rate average = 0.0005
	minimum = 0 (at node 0)
	maximum = 0.008 (at node 5)
Accepted packet rate average = 0.0005
	minimum = 0 (at node 0)
	maximum = 0.008 (at node 6)
Injected flit rate average = 0.0005
	minimum = 0 (at node 0)
	maximum = 0.008 (at node 5)
Accepted flit rate average= 0.0005
	minimum = 0 (at node 0)
	maximum = 0.008 (at node 6)
Injected packet length average = 1
Accepted packet length average = 1
Total in-flight flits = 0 (0 measured)
Class 12:
Packet latency average = 13.0625
	minimum = 13
	maximum = 14
Network latency average = 12.0625
	minimum = 12
	maximum = 13
Slowest packet = 110693
Flit latency average = 12.0625
	minimum = 12
	maximum = 13
Slowest flit = 110969
Fragmentation average = 0
	minimum = 0
	maximum = 0
Injected packet rate average = 0.0005
	minimum = 0 (at node 0)
	maximum = 0.008 (at node 6)
Accepted packet rate average = 0.0005
	minimum = 0 (at node 0)
	maximum = 0.008 (at node 5)
Injected flit rate average = 0.0005
	minimum = 0 (at node 0)
	maximum = 0.008 (at node 6)
Accepted flit rate average= 0.0005
	minimum = 0 (at node 0)
	maximum = 0.008 (at node 5)
Injected packet length average = 1
Accepted packet length average = 1
Total in-flight flits = 0 (0 measured)
Class 13:
Packet latency average = 22.0008
	minimum = 22
	maximum = 24
Network latency average = 22
	minimum = 22
	maximum = 22
Slowest packet = 110694
Flit latency average = 22
	minimum = 22
	maximum = 22
Slowest flit = 110694
Fragmentation average = 0
	minimum = 0
	maximum = 0
Injected packet rate average = 0.0005
	minimum = 0 (at node 0)
	maximum = 0.008 (at node 6)
Accepted packet rate average = 0.0005
	minimum = 0 (at node 0)
	maximum = 0.008 (at node 15)
Injected flit rate average = 0.0005
	minimum = 0 (at node 0)
	maximum = 0.008 (at node 6)
Accepted flit rate average= 0.0005
	minimum = 0 (at node 0)
	maximum = 0.008 (at node 15)
Injected packet length average = 1
Accepted packet length average = 1
Total in-flight flits = 0 (0 measured)
Class 14:
Packet latency average = 12
	minimum = 12
	maximum = 12
Network latency average = 12
	minimum = 12
	maximum = 12
Slowest packet = 110695
Flit latency average = 12
	minimum = 12
	maximum = 12
Slowest flit = 110695
Fragmentation average = 0
	minimum = 0
	maximum = 0
Injected packet rate average = 0.0005
	minimum = 0 (at node 0)
	maximum = 0.008 (at node 8)
Accepted packet rate average = 0.0005
	minimum = 0 (at node 0)
	maximum = 0.008 (at node 12)
Injected flit rate average = 0.0005
	minimum = 0 (at node 0)
	maximum = 0.008 (at node 8)
Accepted flit rate average= 0.0005
	minimum = 0 (at node 0)
	maximum = 0.008 (at node 12)
Injected packet length average = 1
Accepted packet length average = 1
Total in-flight flits = 0 (0 measured)
Class 15:
Packet latency average = 12
	minimum = 12
	maximum = 12
Network latency average = 12
	minimum = 12
	maximum = 12
Slowest packet = 110696
Flit latency average = 12
	minimum = 12
	maximum = 12
Slowest flit = 110696
Fragmentation average = 0
	minimum = 0
	maximum = 0
Injected packet rate average = 0.0005
	minimum = 0 (at node 0)
	maximum = 0.008 (at node 9)
Accepted packet rate average = 0.0005
	minimum = 0 (at node 0)
	maximum = 0.008 (at node 13)
Injected flit rate average = 0.0005
	minimum = 0 (at node 0)
	maximum = 0.008 (at node 9)
Accepted flit rate average= 0.0005
	minimum = 0 (at node 0)
	maximum = 0.008 (at node 13)
Injected packet length average = 1
Accepted packet length average = 1
Total in-flight flits = 0 (0 measured)
Class 16:
Packet latency average = 12
	minimum = 12
	maximum = 12
Network latency average = 12
	minimum = 12
	maximum = 12
Slowest packet = 110697
Flit latency average = 12
	minimum = 12
	maximum = 12
Slowest flit = 110697
Fragmentation average = 0
	minimum = 0
	maximum = 0
Injected packet rate average = 0.0005
	minimum = 0 (at node 0)
	maximum = 0.008 (at node 10)
Accepted packet rate average = 0.0005
	minimum = 0 (at node 0)
	maximum = 0.008 (at node 14)
Injected flit rate average = 0.0005
	minimum = 0 (at node 0)
	maximum = 0.008 (at node 10)
Accepted flit rate average= 0.0005
	minimum = 0 (at node 0)
	maximum = 0.008 (at node 14)
Injected packet length average = 1
Accepted packet length average = 1
Total in-flight flits = 0 (0 measured)
Class 17:
Packet latency average = 12.0329
	minimum = 12
	maximum = 13
Network latency average = 12.0025
	minimum = 12
	maximum = 13
Slowest packet = 110698
Flit latency average = 12.0025
	minimum = 12
	maximum = 13
Slowest flit = 111389
Fragmentation average = 0
	minimum = 0
	maximum = 0
Injected packet rate average = 0.0005
	minimum = 0 (at node 0)
	maximum = 0.008 (at node 11)
Accepted packet rate average = 0.0005
	minimum = 0 (at node 0)
	maximum = 0.008 (at node 7)
Injected flit rate average = 0.0005
	minimum = 0 (at node 0)
	maximum = 0.008 (at node 11)
Accepted flit rate average= 0.0005
	minimum = 0 (at node 0)
	maximum = 0.008 (at node 7)
Injected packet length average = 1
Accepted packet length average = 1
Total in-flight flits = 0 (0 measured)
Class 18:
Packet latency average = 12.0407
	minimum = 12
	maximum = 14
Network latency average = 12.0403
	minimum = 12
	maximum = 14
Slowest packet = 110699
Flit latency average = 12.0403
	minimum = 12
	maximum = 14
Slowest flit = 111676
Fragmentation average = 0
	minimum = 0
	maximum = 0
Injected packet rate average = 0.00195312
	minimum = 0 (at node 0)
	maximum = 0.03125 (at node 11)
Accepted packet rate average = 0.00195312
	minimum = 0 (at node 0)
	maximum = 0.03125 (at node 15)
Injected flit rate average = 0.00195312
	minimum = 0 (at node 0)
	maximum = 0.03125 (at node 11)
Accepted flit rate average= 0.00195312
	minimum = 0 (at node 0)
	maximum = 0.03125 (at node 15)
Injected packet length average = 1
Accepted packet length average = 1
Total in-flight flits = 0 (0 measured)
Class 19:
Packet latency average = 12.0625
	minimum = 12
	maximum = 13
Network latency average = 12.0625
	minimum = 12
	maximum = 13
Slowest packet = 110700
Flit latency average = 12.0625
	minimum = 12
	maximum = 13
Slowest flit = 110700
Fragmentation average = 0
	minimum = 0
	maximum = 0
Injected packet rate average = 0.0005
	minimum = 0 (at node 0)
	maximum = 0.008 (at node 12)
Accepted packet rate average = 0.0005
	minimum = 0 (at node 0)
	maximum = 0.008 (at node 8)
Injected flit rate average = 0.0005
	minimum = 0 (at node 0)
	maximum = 0.008 (at node 12)
Accepted flit rate average= 0.0005
	minimum = 0 (at node 0)
	maximum = 0.008 (at node 8)
Injected packet length average = 1
Accepted packet length average = 1
Total in-flight flits = 0 (0 measured)
Class 20:
Packet latency average = 23
	minimum = 23
	maximum = 23
Network latency average = 22
	minimum = 22
	maximum = 22
Slowest packet = 110701
Flit latency average = 22
	minimum = 22
	maximum = 22
Slowest flit = 110701
Fragmentation average = 0
	minimum = 0
	maximum = 0
Injected packet rate average = 0.0005
	minimum = 0 (at node 0)
	maximum = 0.008 (at node 12)
Accepted packet rate average = 0.0005
	minimum = 0 (at node 0)
	maximum = 0.008 (at node 15)
Injected flit rate average = 0.0005
	minimum = 0 (at node 0)
	maximum = 0.008 (at node 12)
Accepted flit rate average= 0.0005
	minimum = 0 (at node 0)
	maximum = 0.008 (at node 15)
Injected packet length average = 1
Accepted packet length average = 1
Total in-flight flits = 0 (0 measured)
Class 21:
Packet latency average = 12.0625
	minimum = 12
	maximum = 13
Network latency average = 12.0625
	minimum = 12
	maximum = 13
Slowest packet = 110702
Flit latency average = 12.0625
	minimum = 12
	maximum = 13
Slowest flit = 111666
Fragmentation average = 0
	minimum = 0
	maximum = 0
Injected packet rate average = 0.0005
	minimum = 0 (at node 0)
	maximum = 0.008 (at node 13)
Accepted packet rate average = 0.0005
	minimum = 0 (at node 0)
	maximum = 0.008 (at node 9)
Injected flit rate average = 0.0005
	minimum = 0 (at node 0)
	maximum = 0.008 (at node 13)
Accepted flit rate average= 0.0005
	minimum = 0 (at node 0)
	maximum = 0.008 (at node 9)
Injected packet length average = 1
Accepted packet length average = 1
Total in-flight flits = 0 (0 measured)
Class 22:
Packet latency average = 18
	minimum = 18
	maximum = 18
Network latency average = 17
	minimum = 17
	maximum = 17
Slowest packet = 110703
Flit latency average = 17
	minimum = 17
	maximum = 17
Slowest flit = 110703
Fragmentation average = 0
	minimum = 0
	maximum = 0
Injected packet rate average = 0.0005
	minimum = 0 (at node 0)
	maximum = 0.008 (at node 13)
Accepted packet rate average = 0.0005
	minimum = 0 (at node 0)
	maximum = 0.008 (at node 15)
Injected flit rate average = 0.0005
	minimum = 0 (at node 0)
	maximum = 0.008 (at node 13)
Accepted flit rate average= 0.0005
	minimum = 0 (at node 0)
	maximum = 0.008 (at node 15)
Injected packet length average = 1
Accepted packet length average = 1
Total in-flight flits = 0 (0 measured)
Class 23:
Packet latency average = 12.0625
	minimum = 12
	maximum = 13
Network latency average = 12.0625
	minimum = 12
	maximum = 13
Slowest packet = 110704
Flit latency average = 12.0625
	minimum = 12
	maximum = 13
Slowest flit = 111529
Fragmentation average = 0
	minimum = 0
	maximum = 0
Injected packet rate average = 0.0005
	minimum = 0 (at node 0)
	maximum = 0.008 (at node 14)
Accepted packet rate average = 0.0005
	minimum = 0 (at node 0)
	maximum = 0.008 (at node 10)
Injected flit rate average = 0.0005
	minimum = 0 (at node 0)
	maximum = 0.008 (at node 14)
Accepted flit rate average= 0.0005
	minimum = 0 (at node 0)
	maximum = 0.008 (at node 10)
Injected packet length average = 1
Accepted packet length average = 1
Total in-flight flits = 0 (0 measured)
Class 24:
Packet latency average = 13
	minimum = 13
	maximum = 13
Network latency average = 12
	minimum = 12
	maximum = 12
Slowest packet = 110705
Flit latency average = 12
	minimum = 12
	maximum = 12
Slowest flit = 110705
Fragmentation average = 0
	minimum = 0
	maximum = 0
Injected packet rate average = 0.0005
	minimum = 0 (at node 0)
	maximum = 0.008 (at node 14)
Accepted packet rate average = 0.0005
	minimum = 0 (at node 0)
	maximum = 0.008 (at node 15)
Injected flit rate average = 0.0005
	minimum = 0 (at node 0)
	maximum = 0.008 (at node 14)
Accepted flit rate average= 0.0005
	minimum = 0 (at node 0)
	maximum = 0.008 (at node 15)
Injected packet length average = 1
Accepted packet length average = 1
Total in-flight flits = 0 (0 measured)
Class 25:
Packet latency average = 12
	minimum = 12
	maximum = 12
Network latency average = 12
	minimum = 12
	maximum = 12
Slowest packet = 110706
Flit latency average = 12
	minimum = 12
	maximum = 12
Slowest flit = 110706
Fragmentation average = 0
	minimum = 0
	maximum = 0
Injected packet rate average = 0.00195312
	minimum = 0 (at node 0)
	maximum = 0.03125 (at node 15)
Accepted packet rate average = 0.00195312
	minimum = 0 (at node 0)
	maximum = 0.03125 (at node 11)
Injected flit rate average = 0.00195312
	minimum = 0 (at node 0)
	maximum = 0.03125 (at node 15)
Accepted flit rate average= 0.00195312
	minimum = 0 (at node 0)
	maximum = 0.03125 (at node 11)
Injected packet length average = 1
Accepted packet length average = 1
Total in-flight flits = 0 (0 measured)
latency change    = 0
throughput change = 0
latency change    = 0
throughput change = 0
latency change    = 0
throughput change = 0
latency change    = 0
throughput change = 0
latency change    = 6.97314e-05
throughput change = 0.0025641
latency change    = 2.66701e-06
throughput change = 8e-05
latency change    = 5.84625e-05
throughput change = 8e-05
latency change    = 3.13765e-06
throughput change = 8e-05
latency change    = 0
throughput change = 0
latency change    = 0
throughput change = 8e-05
latency change    = 2.22214e-06
throughput change = 8e-05
latency change    = 5.15358e-05
throughput change = 0
latency change    = 0
throughput change = 0
latency change    = 1.89387e-05
throughput change = 0
latency change    = 0
throughput change = 0
latency change    = 0
throughput change = 0
latency change    = 0
throughput change = 0
latency change    = 3.46272e-05
throughput change = 0
latency change    = 1.77176e-05
throughput change = 0
latency change    = 0
throughput change = 0
latency change    = 0
throughput change = 0
latency change    = 0
throughput change = 0
latency change    = 0
throughput change = 0
latency change    = 0
throughput change = 0
latency change    = 0
throughput change = 0
latency change    = 0
throughput change = 0
Warmed up ...Time used is 300000 cycles
Class 0:
Packet latency average = 17
	minimum = 17
	maximum = 17
Network latency average = 17
	minimum = 17
	maximum = 17
Slowest packet = 166022
Flit latency average = 17
	minimum = 17
	maximum = 17
Slowest flit = 166022
Fragmentation average = 0
	minimum = 0
	maximum = 0
Injected packet rate average = 0.000125
	minimum = 0 (at node 0)
	maximum = 0.002 (at node 1)
Accepted packet rate average = 0.000125
	minimum = 0 (at node 0)
	maximum = 0.002 (at node 3)
Injected flit rate average = 0.000125
	minimum = 0 (at node 0)
	maximum = 0.002 (at node 1)
Accepted flit rate average= 0.000125
	minimum = 0 (at node 0)
	maximum = 0.002 (at node 3)
Injected packet length average = 1
Accepted packet length average = 1
Total in-flight flits = 0 (0 measured)
Class 1:
Packet latency average = 12
	minimum = 12
	maximum = 12
Network latency average = 12
	minimum = 12
	maximum = 12
Slowest packet = 166023
Flit latency average = 12
	minimum = 12
	maximum = 12
Slowest flit = 166023
Fragmentation average = 0
	minimum = 0
	maximum = 0
Injected packet rate average = 0.000125
	minimum = 0 (at node 0)
	maximum = 0.002 (at node 2)
Accepted packet rate average = 0.000125
	minimum = 0 (at node 0)
	maximum = 0.002 (at node 3)
Injected flit rate average = 0.000125
	minimum = 0 (at node 0)
	maximum = 0.002 (at node 2)
Accepted flit rate average= 0.000125
	minimum = 0 (at node 0)
	maximum = 0.002 (at node 3)
Injected packet length average = 1
Accepted packet length average = 1
Total in-flight flits = 0 (0 measured)
Class 2:
Packet latency average = 17
	minimum = 17
	maximum = 17
Network latency average = 17
	minimum = 17
	maximum = 17
Slowest packet = 166024
Flit latency average = 17
	minimum = 17
	maximum = 17
Slowest flit = 166024
Fragmentation average = 0
	minimum = 0
	maximum = 0
Injected packet rate average = 0.000125
	minimum = 0 (at node 0)
	maximum = 0.002 (at node 3)
Accepted packet rate average = 0.000125
	minimum = 0 (at node 0)
	maximum = 0.002 (at node 1)
Injected flit rate average = 0.000125
	minimum = 0 (at node 0)
	maximum = 0.002 (at node 3)
Accepted flit rate average= 0.000125
	minimum = 0 (at node 0)
	maximum = 0.002 (at node 1)
Injected packet length average = 1
Accepted packet length average = 1
Total in-flight flits = 0 (0 measured)
Class 3:
Packet latency average = 13
	minimum = 13
	maximum = 13
Network latency average = 12
	minimum = 12
	maximum = 12
Slowest packet = 166025
Flit latency average = 12
	minimum = 12
	maximum = 12
Slowest flit = 166025
Fragmentation average = 0
	minimum = 0
	maximum = 0
Injected packet rate average = 0.000125
	minimum = 0 (at node 0)
	maximum = 0.002 (at node 3)
Accepted packet rate average = 0.000125
	minimum = 0 (at node 0)
	maximum = 0.002 (at node 2)
Injected flit rate average = 0.000125
	minimum = 0 (at node 0)
	maximum = 0.002 (at node 3)
Accepted flit rate average= 0.000125
	minimum = 0 (at node 0)
	maximum = 0.002 (at node 2)
Injected packet length average = 1
Accepted packet length average = 1
Total in-flight flits = 0 (0 measured)
Class 4:
Packet latency average = 12.0166
	minimum = 12
	maximum = 14
Network latency average = 12
	minimum = 12
	maximum = 12
Slowest packet = 166053
Flit latency average = 12
	minimum = 12
	maximum = 12
Slowest flit = 166053
Fragmentation average = 0
	minimum = 0
	maximum = 0
Injected packet rate average = 0.000244375
	minimum = 0 (at node 0)
	maximum = 0.00391 (at node 3)
Accepted packet rate average = 0.000244375
	minimum = 0 (at node 0)
	maximum = 0.00391 (at node 7)
Injected flit rate average = 0.000244375
	minimum = 0 (at node 0)
	maximum = 0.00391 (at node 3)
Accepted flit rate average= 0.000244375
	minimum = 0 (at node 0)
	maximum = 0.00391 (at node 7)
Injected packet length average = 1
Accepted packet length average = 1
Total in-flight flits = 0 (0 measured)
Class 5:
Packet latency average = 20.0001
	minimum = 20
	maximum = 21
Network latency average = 17
	minimum = 17
	maximum = 17
Slowest packet = 166026
Flit latency average = 17
	minimum = 17
	maximum = 17
Slowest flit = 166016
Fragmentation average = 0
	minimum = 0
	maximum = 0
Injected packet rate average = 0.00390625
	minimum = 0 (at node 0)
	maximum = 0.0625 (at node 4)
Accepted packet rate average = 0.00390625
	minimum = 0 (at node 0)
	maximum = 0.0625 (at node 1)
Injected flit rate average = 0.00390625
	minimum = 0 (at node 0)
	maximum = 0.0625 (at node 4)
Accepted flit rate average= 0.00390625
	minimum = 0 (at node 0)
	maximum = 0.0625 (at node 1)
Injected packet length average = 1
Accepted packet length average = 1
Total in-flight flits = 1 (1 measured)
Class 6:
Packet latency average = 26.0023
	minimum = 26
	maximum = 28
Network latency average = 22
	minimum = 22
	maximum = 22
Slowest packet = 166027
Flit latency average = 22
	minimum = 22
	maximum = 22
Slowest flit = 166017
Fragmentation average = 0
	minimum = 0
	maximum = 0
Injected packet rate average = 0.00390625
	minimum = 0 (at node 0)
	maximum = 0.0625 (at node 4)
Accepted packet rate average = 0.00390625
	minimum = 0 (at node 0)
	maximum = 0.0625 (at node 2)
Injected flit rate average = 0.00390625
	minimum = 0 (at node 0)
	maximum = 0.0625 (at node 4)
Accepted flit rate average= 0.00390625
	minimum = 0 (at node 0)
	maximum = 0.0625 (at node 2)
Injected packet length average = 1
Accepted packet length average = 1
Total in-flight flits = 1 (1 measured)
Class 7:
Packet latency average = 17.0001
	minimum = 17
	maximum = 19
Network latency average = 12
	minimum = 12
	maximum = 12
Slowest packet = 166028
Flit latency average = 12
	minimum = 12
	maximum = 12
Slowest flit = 166018
Fragmentation average = 0
	minimum = 0
	maximum = 0
Injected packet rate average = 0.00390625
	minimum = 0 (at node 0)
	maximum = 0.0625 (at node 4)
Accepted packet rate average = 0.00390625
	minimum = 0 (at node 0)
	maximum = 0.0625 (at node 5)
Injected flit rate average = 0.00390625
	minimum = 0 (at node 0)
	maximum = 0.0625 (at node 4)
Accepted flit rate average= 0.00390625
	minimum = 0 (at node 0)
	maximum = 0.0625 (at node 5)
Injected packet length average = 1
Accepted packet length average = 1
Total in-flight flits = 1 (1 measured)
Class 8:
Packet latency average = 12
	minimum = 12
	maximum = 12
Network latency average = 12
	minimum = 12
	maximum = 12
Slowest packet = 166029
Flit latency average = 12
	minimum = 12
	maximum = 12
Slowest flit = 166029
Fragmentation average = 0
	minimum = 0
	maximum = 0
Injected packet rate average = 0.00390625
	minimum = 0 (at node 0)
	maximum = 0.0625 (at node 4)
Accepted packet rate average = 0.00390625
	minimum = 0 (at node 0)
	maximum = 0.0625 (at node 8)
Injected flit rate average = 0.00390625
	minimum = 0 (at node 0)
	maximum = 0.0625 (at node 4)
Accepted flit rate average= 0.00390625
	minimum = 0 (at node 0)
	maximum = 0.0625 (at node 8)
Injected packet length average = 1
Accepted packet length average = 1
Total in-flight flits = 0 (0 measured)
Class 9:
Packet latency average = 18
	minimum = 18
	maximum = 18
Network latency average = 17
	minimum = 17
	maximum = 17
Slowest packet = 166030
Flit latency average = 17
	minimum = 17
	maximum = 17
Slowest flit = 166020
Fragmentation average = 0
	minimum = 0
	maximum = 0
Injected packet rate average = 0.00390625
	minimum = 0 (at node 0)
	maximum = 0.0625 (at node 4)
Accepted packet rate average = 0.00390625
	minimum = 0 (at node 0)
	maximum = 0.0625 (at node 9)
Injected flit rate average = 0.00390625
	minimum = 0 (at node 0)
	maximum = 0.0625 (at node 4)
Accepted flit rate average= 0.00390625
	minimum = 0 (at node 0)
	maximum = 0.0625 (at node 9)
Injected packet length average = 1
Accepted packet length average = 1
Total in-flight flits = 1 (1 measured)
Class 10:
Packet latency average = 24.0002
	minimum = 24
	maximum = 25
Network latency average = 22
	minimum = 22
	maximum = 22
Slowest packet = 166031
Flit latency average = 22
	minimum = 22
	maximum = 22
Slowest flit = 166021
Fragmentation average = 0
	minimum = 0
	maximum = 0
Injected packet rate average = 0.00390625
	minimum = 0 (at node 0)
	maximum = 0.0625 (at node 4)
Accepted packet rate average = 0.00390625
	minimum = 0 (at node 0)
	maximum = 0.0625 (at node 10)
Injected flit rate average = 0.00390625
	minimum = 0 (at node 0)
	maximum = 0.0625 (at node 4)
Accepted flit rate average= 0.00390625
	minimum = 0 (at node 0)
	maximum = 0.0625 (at node 10)
Injected packet length average = 1
Accepted packet length average = 1
Total in-flight flits = 1 (1 measured)
Class 11:
Packet latency average = 12.1275
	minimum = 12
	maximum = 14
Network latency average = 12.1275
	minimum = 12
	maximum = 13
Slowest packet = 166032
Flit latency average = 12.1275
	minimum = 12
	maximum = 13
Slowest flit = 166235
Fragmentation average = 0
	minimum = 0
	maximum = 0
Injected packet rate average = 0.0005
	minimum = 0 (at node 0)
	maximum = 0.008 (at node 5)
Accepted packet rate average = 0.0005
	minimum = 0 (at node 0)
	maximum = 0.008 (at node 6)
Injected flit rate average = 0.0005
	minimum = 0 (at node 0)
	maximum = 0.008 (at node 5)
Accepted flit rate average= 0.0005
	minimum = 0 (at node 0)
	maximum = 0.008 (at node 6)
Injected packet length average = 1
Accepted packet length average = 1
Total in-flight flits = 0 (0 measured)
Class 12:
Packet latency average = 13.0625
	minimum = 13
	maximum = 14
Network latency average = 12.0625
	minimum = 12
	maximum = 13
Slowest packet = 166033
Flit latency average = 12.0625
	minimum = 12
	maximum = 13
Slowest flit = 166309
Fragmentation average = 0
	minimum = 0
	maximum = 0
Injected packet rate average = 0.0005
	minimum = 0 (at node 0)
	maximum = 0.008 (at node 6)
Accepted packet rate average = 0.0005
	minimum = 0 (at node 0)
	maximum = 0.008 (at node 5)
Injected flit rate average = 0.0005
	minimum = 0 (at node 0)
	maximum = 0.008 (at node 6)
Accepted flit rate average= 0.0005
	minimum = 0 (at node 0)
	maximum = 0.008 (at node 5)
Injected packet length average = 1
Accepted packet length average = 1
Total in-flight flits = 0 (0 measured)
Class 13:
Packet latency average = 22.0006
	minimum = 22
	maximum = 24
Network latency average = 22
	minimum = 22
	maximum = 22
Slowest packet = 166034
Flit latency average = 22
	minimum = 22
	maximum = 22
Slowest flit = 166034
Fragmentation average = 0
	minimum = 0
	maximum = 0
Injected packet rate average = 0.0005
	minimum = 0 (at node 0)
	maximum = 0.008 (at node 6)
Accepted packet rate average = 0.0005
	minimum = 0 (at node 0)
	maximum = 0.008 (at node 15)
Injected flit rate average = 0.0005
	minimum = 0 (at node 0)
	maximum = 0.008 (at node 6)
Accepted flit rate average= 0.0005
	minimum = 0 (at node 0)
	maximum = 0.008 (at node 15)
Injected packet length average = 1
Accepted packet length average = 1
Total in-flight flits = 0 (0 measured)
Class 14:
Packet latency average = 12
	minimum = 12
	maximum = 12
Network latency average = 12
	minimum = 12
	maximum = 12
Slowest packet = 166035
Flit latency average = 12
	minimum = 12
	maximum = 12
Slowest flit = 166035
Fragmentation average = 0
	minimum = 0
	maximum = 0
Injected packet rate average = 0.0005
	minimum = 0 (at node 0)
	maximum = 0.008 (at node 8)
Accepted packet rate average = 0.0005
	minimum = 0 (at node 0)
	maximum = 0.008 (at node 12)
Injected flit rate average = 0.0005
	minimum = 0 (at node 0)
	maximum = 0.008 (at node 8)
Accepted flit rate average= 0.0005
	minimum = 0 (at node 0)
	maximum = 0.008 (at node 12)
Injected packet length average = 1
Accepted packet length average = 1
Total in-flight flits = 0 (0 measured)
Class 15:
Packet latency average = 12
	minimum = 12
	maximum = 12
Network latency average = 12
	minimum = 12
	maximum = 12
Slowest packet = 166036
Flit latency average = 12
	minimum = 12
	maximum = 12
Slowest flit = 166036
Fragmentation average = 0
	minimum = 0
	maximum = 0
Injected packet rate average = 0.0005
	minimum = 0 (at node 0)
	maximum = 0.008 (at node 9)
Accepted packet rate average = 0.0005
	minimum = 0 (at node 0)
	maximum = 0.008 (at node 13)
Injected flit rate average = 0.0005
	minimum = 0 (at node 0)
	maximum = 0.008 (at node 9)
Accepted flit rate average= 0.0005
	minimum = 0 (at node 0)
	maximum = 0.008 (at node 13)
Injected packet length average = 1
Accepted packet length average = 1
Total in-flight flits = 0 (0 measured)
Class 16:
Packet latency average = 12
	minimum = 12
	maximum = 12
Network latency average = 12
	minimum = 12
	maximum = 12
Slowest packet = 166037
Flit latency average = 12
	minimum = 12
	maximum = 12
Slowest flit = 166037
Fragmentation average = 0
	minimum = 0
	maximum = 0
Injected packet rate average = 0.0005
	minimum = 0 (at node 0)
	maximum = 0.008 (at node 10)
Accepted packet rate average = 0.0005
	minimum = 0 (at node 0)
	maximum = 0.008 (at node 14)
Injected flit rate average = 0.0005
	minimum = 0 (at node 0)
	maximum = 0.008 (at node 10)
Accepted flit rate average= 0.0005
	minimum = 0 (at node 0)
	maximum = 0.008 (at node 14)
Injected packet length average = 1
Accepted packet length average = 1
Total in-flight flits = 0 (0 measured)
Class 17:
Packet latency average = 12.0328
	minimum = 12
	maximum = 13
Network latency average = 12.0013
	minimum = 12
	maximum = 13
Slowest packet = 166038
Flit latency average = 12.0013
	minimum = 12
	maximum = 13
Slowest flit = 199934
Fragmentation average = 0
	minimum = 0
	maximum = 0
Injected packet rate average = 0.0005
	minimum = 0 (at node 0)
	maximum = 0.008 (at node 11)
Accepted packet rate average = 0.0005
	minimum = 0 (at node 0)
	maximum = 0.008 (at node 7)
Injected flit rate average = 0.0005
	minimum = 0 (at node 0)
	maximum = 0.008 (at node 11)
Accepted flit rate average= 0.0005
	minimum = 0 (at node 0)
	maximum = 0.008 (at node 7)
Injected packet length average = 1
Accepted packet length average = 1
Total in-flight flits = 0 (0 measured)
Class 18:
Packet latency average = 12.0407
	minimum = 12
	maximum = 14
Network latency average = 12.0406
	minimum = 12
	maximum = 14
Slowest packet = 166039
Flit latency average = 12.0406
	minimum = 12
	maximum = 14
Slowest flit = 167016
Fragmentation average = 0
	minimum = 0
	maximum = 0
Injected packet rate average = 0.00195312
	minimum = 0 (at node 0)
	maximum = 0.03125 (at node 11)
Accepted packet rate average = 0.00195312
	minimum = 0 (at node 0)
	maximum = 0.03125 (at node 15)
Injected flit rate average = 0.00195312
	minimum = 0 (at node 0)
	maximum = 0.03125 (at node 11)
Accepted flit rate average= 0.00195312
	minimum = 0 (at node 0)
	maximum = 0.03125 (at node 15)
Injected packet length average = 1
Accepted packet length average = 1
Total in-flight flits = 0 (0 measured)
Class 19:
Packet latency average = 12.0625
	minimum = 12
	maximum = 13
Network latency average = 12.0625
	minimum = 12
	maximum = 13
Slowest packet = 166040
Flit latency average = 12.0625
	minimum = 12
	maximum = 13
Slowest flit = 166040
Fragmentation average = 0
	minimum = 0
	maximum = 0
[...]
Accepted flit rate average = 0.000244167 (1 samples)
	minimum = 0 (1 samples)
	maximum = 0.00390667 (1 samples)
Injected packet size average = 1 (1 samples)
Accepted packet size average = 1 (1 samples)
Hops average = 2 (1 samples)
====== Traffic class 5 ======
Packet latency average = 20.0001 (1 samples)
	minimum = 20 (1 samples)
	maximum = 21 (1 samples)
Network latency average = 17 (1 samples)
	minimum = 17 (1 samples)
	maximum = 17 (1 samples)
Flit latency average = 17 (1 samples)
	minimum = 17 (1 samples)
	maximum = 17 (1 samples)
Fragmentation average = 0 (1 samples)
	minimum = 0 (1 samples)
	maximum = 0 (1 samples)
Injected packet rate average = 0.00390625 (1 samples)
	minimum = 0 (1 samples)
	maximum = 0.0625 (1 samples)
Accepted packet rate average = 0.00390625 (1 samples)
	minimum = 0 (1 samples)
	maximum = 0.0625 (1 samples)
Injected flit rate average = 0.00390625 (1 samples)
	minimum = 0 (1 samples)
	maximum = 0.0625 (1 samples)
Accepted flit rate average = 0.00390625 (1 samples)
	minimum = 0 (1 samples)
	maximum = 0.0625 (1 samples)
Injected packet size average = 1 (1 samples)
Accepted packet size average = 1 (1 samples)
Hops average = 3 (1 samples)
====== Traffic class 6 ======
Packet latency average = 26.0015 (1 samples)
	minimum = 26 (1 samples)
	maximum = 28 (1 samples)
Network latency average = 22 (1 samples)
	minimum = 22 (1 samples)
	maximum = 22 (1 samples)
Flit latency average = 22 (1 samples)
	minimum = 22 (1 samples)
	maximum = 22 (1 samples)
Fragmentation average = 0 (1 samples)
	minimum = 0 (1 samples)
	maximum = 0 (1 samples)
Injected packet rate average = 0.00390625 (1 samples)
	minimum = 0 (1 samples)
	maximum = 0.0625 (1 samples)
Accepted packet rate average = 0.00390625 (1 samples)
	minimum = 0 (1 samples)
	maximum = 0.0625 (1 samples)
Injected flit rate average = 0.00390625 (1 samples)
	minimum = 0 (1 samples)
	maximum = 0.0625 (1 samples)
Accepted flit rate average = 0.00390625 (1 samples)
	minimum = 0 (1 samples)
	maximum = 0.0625 (1 samples)
Injected packet size average = 1 (1 samples)
Accepted packet size average = 1 (1 samples)
Hops average = 4 (1 samples)
====== Traffic class 7 ======
Packet latency average = 17.0001 (1 samples)
	minimum = 17 (1 samples)
	maximum = 19 (1 samples)
Network latency average = 12 (1 samples)
	minimum = 12 (1 samples)
	maximum = 12 (1 samples)
Flit latency average = 12 (1 samples)
	minimum = 12 (1 samples)
	maximum = 12 (1 samples)
Fragmentation average = 0 (1 samples)
	minimum = 0 (1 samples)
	maximum = 0 (1 samples)
Injected packet rate average = 0.00390625 (1 samples)
	minimum = 0 (1 samples)
	maximum = 0.0625 (1 samples)
Accepted packet rate average = 0.00390625 (1 samples)
	minimum = 0 (1 samples)
	maximum = 0.0625 (1 samples)
Injected flit rate average = 0.00390625 (1 samples)
	minimum = 0 (1 samples)
	maximum = 0.0625 (1 samples)
Accepted flit rate average = 0.00390625 (1 samples)
	minimum = 0 (1 samples)
	maximum = 0.0625 (1 samples)
Injected packet size average = 1 (1 samples)
Accepted packet size average = 1 (1 samples)
Hops average = 2 (1 samples)
====== Traffic class 8 ======
Packet latency average = 12 (1 samples)
	minimum = 12 (1 samples)
	maximum = 12 (1 samples)
Network latency average = 12 (1 samples)
	minimum = 12 (1 samples)
	maximum = 12 (1 samples)
Flit latency average = 12 (1 samples)
	minimum = 12 (1 samples)
	maximum = 12 (1 samples)
Fragmentation average = 0 (1 samples)
	minimum = 0 (1 samples)
	maximum = 0 (1 samples)
Injected packet rate average = 0.00390625 (1 samples)
	minimum = 0 (1 samples)
	maximum = 0.0625 (1 samples)
Accepted packet rate average = 0.00390625 (1 samples)
	minimum = 0 (1 samples)
	maximum = 0.0625 (1 samples)
Injected flit rate average = 0.00390625 (1 samples)
	minimum = 0 (1 samples)
	maximum = 0.0625 (1 samples)
Accepted flit rate average = 0.00390625 (1 samples)
	minimum = 0 (1 samples)
	maximum = 0.0625 (1 samples)
Injected packet size average = 1 (1 samples)
Accepted packet size average = 1 (1 samples)
Hops average = 2 (1 samples)
====== Traffic class 9 ======
Packet latency average = 18 (1 samples)
	minimum = 18 (1 samples)
	maximum = 18 (1 samples)
Network latency average = 17 (1 samples)
	minimum = 17 (1 samples)
	maximum = 17 (1 samples)
Flit latency average = 17 (1 samples)
	minimum = 17 (1 samples)
	maximum = 17 (1 samples)
Fragmentation average = 0 (1 samples)
	minimum = 0 (1 samples)
	maximum = 0 (1 samples)
Injected packet rate average = 0.00390625 (1 samples)
	minimum = 0 (1 samples)
	maximum = 0.0625 (1 samples)
Accepted packet rate average = 0.00390625 (1 samples)
	minimum = 0 (1 samples)
	maximum = 0.0625 (1 samples)
Injected flit rate average = 0.00390625 (1 samples)
	minimum = 0 (1 samples)
	maximum = 0.0625 (1 samples)
Accepted flit rate average = 0.00390625 (1 samples)
	minimum = 0 (1 samples)
	maximum = 0.0625 (1 samples)
Injected packet size average = 1 (1 samples)
Accepted packet size average = 1 (1 samples)
Hops average = 3 (1 samples)
====== Traffic class 10 ======
Packet latency average = 24.0002 (1 samples)
	minimum = 24 (1 samples)
	maximum = 25 (1 samples)
Network latency average = 22.0002 (1 samples)
	minimum = 22 (1 samples)
	maximum = 23 (1 samples)
Flit latency average = 22.0002 (1 samples)
	minimum = 22 (1 samples)
	maximum = 23 (1 samples)
Fragmentation average = 0 (1 samples)
	minimum = 0 (1 samples)
	maximum = 0 (1 samples)
Injected packet rate average = 0.00390625 (1 samples)
	minimum = 0 (1 samples)
	maximum = 0.0625 (1 samples)
Accepted packet rate average = 0.00390625 (1 samples)
	minimum = 0 (1 samples)
	maximum = 0.0625 (1 samples)
Injected flit rate average = 0.00390625 (1 samples)
	minimum = 0 (1 samples)
	maximum = 0.0625 (1 samples)
Accepted flit rate average = 0.00390625 (1 samples)
	minimum = 0 (1 samples)
	maximum = 0.0625 (1 samples)
Injected packet size average = 1 (1 samples)
Accepted packet size average = 1 (1 samples)
Hops average = 4 (1 samples)
====== Traffic class 11 ======
Packet latency average = 12.1271 (1 samples)
	minimum = 12 (1 samples)
	maximum = 14 (1 samples)
Network latency average = 12.1267 (1 samples)
	minimum = 12 (1 samples)
	maximum = 13 (1 samples)
Flit latency average = 12.1266 (1 samples)
	minimum = 12 (1 samples)
	maximum = 13 (1 samples)
Fragmentation average = 0 (1 samples)
	minimum = 0 (1 samples)
	maximum = 0 (1 samples)
Injected packet rate average = 0.0005 (1 samples)
	minimum = 0 (1 samples)
	maximum = 0.008 (1 samples)
Accepted packet rate average = 0.0005 (1 samples)
	minimum = 0 (1 samples)
	maximum = 0.008 (1 samples)
Injected flit rate average = 0.0005 (1 samples)
	minimum = 0 (1 samples)
	maximum = 0.008 (1 samples)
Accepted flit rate average = 0.0005 (1 samples)
	minimum = 0 (1 samples)
	maximum = 0.008 (1 samples)
Injected packet size average = 1 (1 samples)
Accepted packet size average = 1 (1 samples)
Hops average = 2 (1 samples)
====== Traffic class 12 ======
Packet latency average = 13.0625 (1 samples)
	minimum = 13 (1 samples)
	maximum = 14 (1 samples)
Network latency average = 12.0625 (1 samples)
	minimum = 12 (1 samples)
	maximum = 13 (1 samples)
Flit latency average = 12.0625 (1 samples)
	minimum = 12 (1 samples)
	maximum = 13 (1 samples)
Fragmentation average = 0 (1 samples)
	minimum = 0 (1 samples)
	maximum = 0 (1 samples)
Injected packet rate average = 0.0005 (1 samples)
	minimum = 0 (1 samples)
	maximum = 0.008 (1 samples)
Accepted packet rate average = 0.0005 (1 samples)
	minimum = 0 (1 samples)
	maximum = 0.008 (1 samples)
Injected flit rate average = 0.0005 (1 samples)
	minimum = 0 (1 samples)
	maximum = 0.008 (1 samples)
Accepted flit rate average = 0.0005 (1 samples)
	minimum = 0 (1 samples)
	maximum = 0.008 (1 samples)
Injected packet size average = 1 (1 samples)
Accepted packet size average = 1 (1 samples)
Hops average = 2 (1 samples)
====== Traffic class 13 ======
Packet latency average = 22.0012 (1 samples)
	minimum = 22 (1 samples)
	maximum = 24 (1 samples)
Network latency average = 22.0017 (1 samples)
	minimum = 22 (1 samples)
	maximum = 24 (1 samples)
Flit latency average = 22.0017 (1 samples)
	minimum = 22 (1 samples)
	maximum = 24 (1 samples)
Fragmentation average = 0 (1 samples)
	minimum = 0 (1 samples)
	maximum = 0 (1 samples)
Injected packet rate average = 0.0005 (1 samples)
	minimum = 0 (1 samples)
	maximum = 0.008 (1 samples)
Accepted packet rate average = 0.0005 (1 samples)
	minimum = 0 (1 samples)
	maximum = 0.008 (1 samples)
Injected flit rate average = 0.0005 (1 samples)
	minimum = 0 (1 samples)
	maximum = 0.008 (1 samples)
Accepted flit rate average = 0.0005 (1 samples)
	minimum = 0 (1 samples)
	maximum = 0.008 (1 samples)
Injected packet size average = 1 (1 samples)
Accepted packet size average = 1 (1 samples)
Hops average = 4 (1 samples)
====== Traffic class 14 ======
Packet latency average = 12 (1 samples)
	minimum = 12 (1 samples)
	maximum = 12 (1 samples)
Network latency average = 12 (1 samples)
	minimum = 12 (1 samples)
	maximum = 12 (1 samples)
Flit latency average = 12 (1 samples)
	minimum = 12 (1 samples)
	maximum = 12 (1 samples)
Fragmentation average = 0 (1 samples)
	minimum = 0 (1 samples)
	maximum = 0 (1 samples)
Injected packet rate average = 0.0005 (1 samples)
	minimum = 0 (1 samples)
	maximum = 0.008 (1 samples)
Accepted packet rate average = 0.0005 (1 samples)
	minimum = 0 (1 samples)
	maximum = 0.008 (1 samples)
Injected flit rate average = 0.0005 (1 samples)
	minimum = 0 (1 samples)
	maximum = 0.008 (1 samples)
Accepted flit rate average = 0.0005 (1 samples)
	minimum = 0 (1 samples)
	maximum = 0.008 (1 samples)
Injected packet size average = 1 (1 samples)
Accepted packet size average = 1 (1 samples)
Hops average = 2 (1 samples)
====== Traffic class 15 ======
Packet latency average = 12 (1 samples)
	minimum = 12 (1 samples)
	maximum = 12 (1 samples)
Network latency average = 12 (1 samples)
	minimum = 12 (1 samples)
	maximum = 12 (1 samples)
Flit latency average = 12 (1 samples)
	minimum = 12 (1 samples)
	maximum = 12 (1 samples)
Fragmentation average = 0 (1 samples)
	minimum = 0 (1 samples)
	maximum = 0 (1 samples)
Injected packet rate average = 0.0005 (1 samples)
	minimum = 0 (1 samples)
	maximum = 0.008 (1 samples)
Accepted packet rate average = 0.0005 (1 samples)
	minimum = 0 (1 samples)
	maximum = 0.008 (1 samples)
Injected flit rate average = 0.0005 (1 samples)
	minimum = 0 (1 samples)
	maximum = 0.008 (1 samples)
Accepted flit rate average = 0.0005 (1 samples)
	minimum = 0 (1 samples)
	maximum = 0.008 (1 samples)
Injected packet size average = 1 (1 samples)
Accepted packet size average = 1 (1 samples)
Hops average = 2 (1 samples)
====== Traffic class 16 ======
Packet latency average = 12 (1 samples)
	minimum = 12 (1 samples)
	maximum = 12 (1 samples)
Network latency average = 12 (1 samples)
	minimum = 12 (1 samples)
	maximum = 12 (1 samples)
Flit latency average = 12 (1 samples)
	minimum = 12 (1 samples)
	maximum = 12 (1 samples)
Fragmentation average = 0 (1 samples)
	minimum = 0 (1 samples)
	maximum = 0 (1 samples)
Injected packet rate average = 0.0005 (1 samples)
	minimum = 0 (1 samples)
	maximum = 0.008 (1 samples)
Accepted packet rate average = 0.0005 (1 samples)
	minimum = 0 (1 samples)
	maximum = 0.008 (1 samples)
Injected flit rate average = 0.0005 (1 samples)
	minimum = 0 (1 samples)
	maximum = 0.008 (1 samples)
Accepted flit rate average = 0.0005 (1 samples)
	minimum = 0 (1 samples)
	maximum = 0.008 (1 samples)
Injected packet size average = 1 (1 samples)
Accepted packet size average = 1 (1 samples)
Hops average = 2 (1 samples)
====== Traffic class 17 ======
Packet latency average = 12.0327 (1 samples)
	minimum = 12 (1 samples)
	maximum = 13 (1 samples)
Network latency average = 12.0013 (1 samples)
	minimum = 12 (1 samples)
	maximum = 13 (1 samples)
Flit latency average = 12.0012 (1 samples)
	minimum = 12 (1 samples)
	maximum = 13 (1 samples)
Fragmentation average = 0 (1 samples)
	minimum = 0 (1 samples)
	maximum = 0 (1 samples)
Injected packet rate average = 0.0005 (1 samples)
	minimum = 0 (1 samples)
	maximum = 0.008 (1 samples)
Accepted packet rate average = 0.0005 (1 samples)
	minimum = 0 (1 samples)
	maximum = 0.008 (1 samples)
Injected flit rate average = 0.0005 (1 samples)
	minimum = 0 (1 samples)
	maximum = 0.008 (1 samples)
Accepted flit rate average = 0.0005 (1 samples)
	minimum = 0 (1 samples)
	maximum = 0.008 (1 samples)
Injected packet size average = 1 (1 samples)
Accepted packet size average = 1 (1 samples)
Hops average = 2 (1 samples)
====== Traffic class 18 ======
Packet latency average = 12.0407 (1 samples)
	minimum = 12 (1 samples)
	maximum = 14 (1 samples)
Network latency average = 12.0406 (1 samples)
	minimum = 12 (1 samples)
	maximum = 14 (1 samples)
Flit latency average = 12.0406 (1 samples)
	minimum = 12 (1 samples)
	maximum = 14 (1 samples)
Fragmentation average = 0 (1 samples)
	minimum = 0 (1 samples)
	maximum = 0 (1 samples)
Injected packet rate average = 0.00195312 (1 samples)
	minimum = 0 (1 samples)
	maximum = 0.03125 (1 samples)
Accepted packet rate average = 0.00195312 (1 samples)
	minimum = 0 (1 samples)
	maximum = 0.03125 (1 samples)
Injected flit rate average = 0.00195312 (1 samples)
	minimum = 0 (1 samples)
	maximum = 0.03125 (1 samples)
Accepted flit rate average = 0.00195312 (1 samples)
	minimum = 0 (1 samples)
	maximum = 0.03125 (1 samples)
Injected packet size average = 1 (1 samples)
Accepted packet size average = 1 (1 samples)
Hops average = 2 (1 samples)
====== Traffic class 19 ======
Packet latency average = 12.0625 (1 samples)
	minimum = 12 (1 samples)
	maximum = 13 (1 samples)
Network latency average = 12.0625 (1 samples)
	minimum = 12 (1 samples)
	maximum = 13 (1 samples)
Flit latency average = 12.0629 (1 samples)
	minimum = 12 (1 samples)
	maximum = 13 (1 samples)
Fragmentation average = 0 (1 samples)
	minimum = 0 (1 samples)
	maximum = 0 (1 samples)
Injected packet rate average = 0.0005 (1 samples)
	minimum = 0 (1 samples)
	maximum = 0.008 (1 samples)
Accepted packet rate average = 0.0005 (1 samples)
	minimum = 0 (1 samples)
	maximum = 0.008 (1 samples)
Injected flit rate average = 0.0005 (1 samples)
	minimum = 0 (1 samples)
	maximum = 0.008 (1 samples)
Accepted flit rate average = 0.0005 (1 samples)
	minimum = 0 (1 samples)
	maximum = 0.008 (1 samples)
Injected packet size average = 1 (1 samples)
Accepted packet size average = 1 (1 samples)
Hops average = 2 (1 samples)
====== Traffic class 20 ======
Packet latency average = 23 (1 samples)
	minimum = 23 (1 samples)
	maximum = 23 (1 samples)
Network latency average = 22 (1 samples)
	minimum = 22 (1 samples)
	maximum = 22 (1 samples)
Flit latency average = 22 (1 samples)
	minimum = 22 (1 samples)
	maximum = 22 (1 samples)
Fragmentation average = 0 (1 samples)
	minimum = 0 (1 samples)
	maximum = 0 (1 samples)
Injected packet rate average = 0.0005 (1 samples)
	minimum = 0 (1 samples)
	maximum = 0.008 (1 samples)
Accepted packet rate average = 0.0005 (1 samples)
	minimum = 0 (1 samples)
	maximum = 0.008 (1 samples)
Injected flit rate average = 0.0005 (1 samples)
	minimum = 0 (1 samples)
	maximum = 0.008 (1 samples)
Accepted flit rate average = 0.0005 (1 samples)
	minimum = 0 (1 samples)
	maximum = 0.008 (1 samples)
Injected packet size average = 1 (1 samples)
Accepted packet size average = 1 (1 samples)
Hops average = 4 (1 samples)
====== Traffic class 21 ======
Packet latency average = 12.0625 (1 samples)
	minimum = 12 (1 samples)
	maximum = 13 (1 samples)
Network latency average = 12.0625 (1 samples)
	minimum = 12 (1 samples)
	maximum = 13 (1 samples)
Flit latency average = 12.0625 (1 samples)
	minimum = 12 (1 samples)
	maximum = 13 (1 samples)
Fragmentation average = 0 (1 samples)
	minimum = 0 (1 samples)
	maximum = 0 (1 samples)
Injected packet rate average = 0.0005 (1 samples)
	minimum = 0 (1 samples)
	maximum = 0.008 (1 samples)
Accepted packet rate average = 0.0005 (1 samples)
	minimum = 0 (1 samples)
	maximum = 0.008 (1 samples)
Injected flit rate average = 0.0005 (1 samples)
	minimum = 0 (1 samples)
	maximum = 0.008 (1 samples)
Accepted flit rate average = 0.0005 (1 samples)
	minimum = 0 (1 samples)
	maximum = 0.008 (1 samples)
Injected packet size average = 1 (1 samples)
Accepted packet size average = 1 (1 samples)
Hops average = 2 (1 samples)
====== Traffic class 22 ======
Packet latency average = 18 (1 samples)
	minimum = 18 (1 samples)
	maximum = 18 (1 samples)
Network latency average = 17 (1 samples)
	minimum = 17 (1 samples)
	maximum = 17 (1 samples)
Flit latency average = 17 (1 samples)
	minimum = 17 (1 samples)
	maximum = 17 (1 samples)
Fragmentation average = 0 (1 samples)
	minimum = 0 (1 samples)
	maximum = 0 (1 samples)
Injected packet rate average = 0.0005 (1 samples)
	minimum = 0 (1 samples)
	maximum = 0.008 (1 samples)
Accepted packet rate average = 0.0005 (1 samples)
	minimum = 0 (1 samples)
	maximum = 0.008 (1 samples)
Injected flit rate average = 0.0005 (1 samples)
	minimum = 0 (1 samples)
	maximum = 0.008 (1 samples)
Accepted flit rate average = 0.0005 (1 samples)
	minimum = 0 (1 samples)
	maximum = 0.008 (1 samples)
Injected packet size average = 1 (1 samples)
Accepted packet size average = 1 (1 samples)
Hops average = 3 (1 samples)
====== Traffic class 23 ======
Packet latency average = 12.0625 (1 samples)
	minimum = 12 (1 samples)
	maximum = 13 (1 samples)
Network latency average = 12.0625 (1 samples)
	minimum = 12 (1 samples)
	maximum = 13 (1 samples)
Flit latency average = 12.0625 (1 samples)
	minimum = 12 (1 samples)
	maximum = 13 (1 samples)
Fragmentation average = 0 (1 samples)
	minimum = 0 (1 samples)
	maximum = 0 (1 samples)
Injected packet rate average = 0.0005 (1 samples)
	minimum = 0 (1 samples)
	maximum = 0.008 (1 samples)
Accepted packet rate average = 0.0005 (1 samples)
	minimum = 0 (1 samples)
	maximum = 0.008 (1 samples)
Injected flit rate average = 0.0005 (1 samples)
	minimum = 0 (1 samples)
	maximum = 0.008 (1 samples)
Accepted flit rate average = 0.0005 (1 samples)
	minimum = 0 (1 samples)
	maximum = 0.008 (1 samples)
Injected packet size average = 1 (1 samples)
Accepted packet size average = 1 (1 samples)
Hops average = 2 (1 samples)
====== Traffic class 24 ======
Packet latency average = 13 (1 samples)
	minimum = 13 (1 samples)
	maximum = 13 (1 samples)
Network latency average = 12 (1 samples)
	minimum = 12 (1 samples)
	maximum = 12 (1 samples)
Flit latency average = 12 (1 samples)
	minimum = 12 (1 samples)
	maximum = 12 (1 samples)
Fragmentation average = 0 (1 samples)
	minimum = 0 (1 samples)
	maximum = 0 (1 samples)
Injected packet rate average = 0.0005 (1 samples)
	minimum = 0 (1 samples)
	maximum = 0.008 (1 samples)
Accepted packet rate average = 0.0005 (1 samples)
	minimum = 0 (1 samples)
	maximum = 0.008 (1 samples)
Injected flit rate average = 0.0005 (1 samples)
	minimum = 0 (1 samples)
	maximum = 0.008 (1 samples)
Accepted flit rate average = 0.0005 (1 samples)
	minimum = 0 (1 samples)
	maximum = 0.008 (1 samples)
Injected packet size average = 1 (1 samples)
Accepted packet size average = 1 (1 samples)
Hops average = 2 (1 samples)
====== Traffic class 25 ======
Packet latency average = 12 (1 samples)
	minimum = 12 (1 samples)
	maximum = 12 (1 samples)
Network latency average = 12 (1 samples)
	minimum = 12 (1 samples)
	maximum = 12 (1 samples)
Flit latency average = 12 (1 samples)
	minimum = 12 (1 samples)
	maximum = 12 (1 samples)
Fragmentation average = 0 (1 samples)
	minimum = 0 (1 samples)
	maximum = 0 (1 samples)
Injected packet rate average = 0.00195312 (1 samples)
	minimum = 0 (1 samples)
	maximum = 0.03125 (1 samples)
Accepted packet rate average = 0.00195312 (1 samples)
	minimum = 0 (1 samples)
	maximum = 0.03125 (1 samples)
Injected flit rate average = 0.00195312 (1 samples)
	minimum = 0 (1 samples)
	maximum = 0.03125 (1 samples)
Accepted flit rate average = 0.00195312 (1 samples)
	minimum = 0 (1 samples)
	maximum = 0.03125 (1 samples)
Injected packet size average = 1 (1 samples)
Accepted packet size average = 1 (1 samples)
Hops average = 2 (1 samples)
Total run time 213.705
