BEGIN Configuration File: examples/ericsson
// Topology
topology = mesh;
k = 4;
n = 2;

// Routing
routing_function = dor;

// Flow control
num_vcs     	= 60;
vc_buf_size 	= 16;

wait_for_tail_credit = 0;

// Router architecture
vc_allocator 	 = separable_input_first;
sw_allocator 	 = separable_input_first;
arb_type	 = round_robin;
credit_delay   	 = 1;
routing_delay  	 = 1;
vc_alloc_delay 	 = 1;
sw_alloc_delay	 = 1;
st_final_delay 	 = 1;
input_speedup    = 1;
output_speedup   = 1;
internal_speedup = 1.0;

// Traffic
traffic          = {customizedpattern,customizedpattern,customizedpattern,customizedpattern,customizedpattern,customizedpattern,customizedpattern,customizedpattern,customizedpattern,customizedpattern,customizedpattern,customizedpattern,customizedpattern,customizedpattern,customizedpattern,customizedpattern,customizedpattern,customizedpattern,customizedpattern,customizedpattern,customizedpattern,customizedpattern,customizedpattern,customizedpattern,customizedpattern,customizedpattern,customizedpattern};

injection_process= {customizedinjectionprocess,customizedinjectionprocess,customizedinjectionprocess,customizedinjectionprocess,customizedinjectionprocess,customizedinjectionprocess,customizedinjectionprocess,customizedinjectionprocess,customizedinjectionprocess,customizedinjectionprocess,customizedinjectionprocess,customizedinjectionprocess,customizedinjectionprocess,customizedinjectionprocess,customizedinjectionprocess,customizedinjectionprocess,customizedinjectionprocess,customizedinjectionprocess,customizedinjectionprocess,customizedinjectionprocess,customizedinjectionprocess,customizedinjectionprocess,customizedinjectionprocess,customizedinjectionprocess,customizedinjectionprocess};

packet_size  	 = 1;
priority	 = class;
classes 	 = 26;
class_priority   = {4,4,4,4,3,2,2,2,9,9,9,1,1,7,8,8,8,5,6,8,7,8,7,8,7,6};
	
sample_period  	 = 500000; 

warmup_periods   = 3;

// Simulation
sim_type       	 = latency;
//print_activity   = 1;

//injection rate here is packet per cycle, NOT flit per cycle
injection_rate 	 = {0.002,0.002,0.002,0.002,0.00390625,0.064,0.064,0.064,0.064,0.064,0.064,0.008,0.008,0.008,0.008,0.008,0.008,0.008,0.032,0.008,0.008,0.008,0.008,0.008,0.008,0.008,0.032};

watch_file	 = ./watchpacket.txt;

watch_out	 =-;

END Configuration File: examples/ericsson
Class 0:
Packet latency average = 17
	minimum = 17
	maximum = 17
Network latency average = 17
	minimum = 17
	maximum = 17
Slowest packet = 0
Flit latency average = 17
	minimum = 17
	maximum = 17
Slowest flit = 0
Fragmentation average = 0
	minimum = 0
	maximum = 0
Injected packet rate average = 0.000125
	minimum = 0 (at node 0)
	maximum = 0.002 (at node 1)
Accepted packet rate average = 0.000125
	minimum = 0 (at node 0)
	maximum = 0.002 (at node 3)
Injected flit rate average = 0.000125
	minimum = 0 (at node 0)
	maximum = 0.002 (at node 1)
Accepted flit rate average= 0.000125
	minimum = 0 (at node 0)
	maximum = 0.002 (at node 3)
Injected packet length average = 1
Accepted packet length average = 1
Total in-flight flits = 0 (0 measured)
Class 1:
Packet latency average = 12
	minimum = 12
	maximum = 12
Network latency average = 12
	minimum = 12
	maximum = 12
Slowest packet = 1
Flit latency average = 12
	minimum = 12
	maximum = 12
Slowest flit = 1
Fragmentation average = 0
	minimum = 0
	maximum = 0
Injected packet rate average = 0.000125
	minimum = 0 (at node 0)
	maximum = 0.002 (at node 2)
Accepted packet rate average = 0.000125
	minimum = 0 (at node 0)
	maximum = 0.002 (at node 3)
Injected flit rate average = 0.000125
	minimum = 0 (at node 0)
	maximum = 0.002 (at node 2)
Accepted flit rate average= 0.000125
	minimum = 0 (at node 0)
	maximum = 0.002 (at node 3)
Injected packet length average = 1
Accepted packet length average = 1
Total in-flight flits = 0 (0 measured)
Class 2:
Packet latency average = 17
	minimum = 17
	maximum = 17
Network latency average = 17
	minimum = 17
	maximum = 17
Slowest packet = 2
Flit latency average = 17
	minimum = 17
	maximum = 17
Slowest flit = 2
Fragmentation average = 0
	minimum = 0
	maximum = 0
Injected packet rate average = 0.000125
	minimum = 0 (at node 0)
	maximum = 0.002 (at node 3)
Accepted packet rate average = 0.000125
	minimum = 0 (at node 0)
	maximum = 0.002 (at node 1)
Injected flit rate average = 0.000125
	minimum = 0 (at node 0)
	maximum = 0.002 (at node 3)
Accepted flit rate average= 0.000125
	minimum = 0 (at node 0)
	maximum = 0.002 (at node 1)
Injected packet length average = 1
Accepted packet length average = 1
Total in-flight flits = 0 (0 measured)
Class 3:
Packet latency average = 13
	minimum = 13
	maximum = 13
Network latency average = 12
	minimum = 12
	maximum = 12
Slowest packet = 3
Flit latency average = 12
	minimum = 12
	maximum = 12
Slowest flit = 3
Fragmentation average = 0
	minimum = 0
	maximum = 0
Injected packet rate average = 0.000125
	minimum = 0 (at node 0)
	maximum = 0.002 (at node 3)
Accepted packet rate average = 0.000125
	minimum = 0 (at node 0)
	maximum = 0.002 (at node 2)
Injected flit rate average = 0.000125
	minimum = 0 (at node 0)
	maximum = 0.002 (at node 3)
Accepted flit rate average= 0.000125
	minimum = 0 (at node 0)
	maximum = 0.002 (at node 2)
Injected packet length average = 1
Accepted packet length average = 1
Total in-flight flits = 0 (0 measured)
Class 4:
Packet latency average = 12.0164
	minimum = 12
	maximum = 14
Network latency average = 12
	minimum = 12
	maximum = 12
Slowest packet = 4
Flit latency average = 12
	minimum = 12
	maximum = 12
Slowest flit = 4
Fragmentation average = 0
	minimum = 0
	maximum = 0
Injected packet rate average = 0.00024425
	minimum = 0 (at node 0)
	maximum = 0.003908 (at node 3)
Accepted packet rate average = 0.00024425
	minimum = 0 (at node 0)
	maximum = 0.003908 (at node 7)
Injected flit rate average = 0.00024425
	minimum = 0 (at node 0)
	maximum = 0.003908 (at node 3)
Accepted flit rate average= 0.00024425
	minimum = 0 (at node 0)
	maximum = 0.003908 (at node 7)
Injected packet length average = 1
Accepted packet length average = 1
Total in-flight flits = 0 (0 measured)
Class 5:
Packet latency average = 20.0001
	minimum = 20
	maximum = 21
Network latency average = 17.0001
	minimum = 17
	maximum = 18
Slowest packet = 5
Flit latency average = 17.0001
	minimum = 17
	maximum = 18
Slowest flit = 5
Fragmentation average = 0
	minimum = 0
	maximum = 0
Injected packet rate average = 0.00390625
	minimum = 0 (at node 0)
	maximum = 0.0625 (at node 4)
Accepted packet rate average = 0.00390612
	minimum = 0 (at node 0)
	maximum = 0.062498 (at node 1)
Injected flit rate average = 0.00390625
	minimum = 0 (at node 0)
	maximum = 0.0625 (at node 4)
Accepted flit rate average= 0.00390612
	minimum = 0 (at node 0)
	maximum = 0.062498 (at node 1)
Injected packet length average = 1
Accepted packet length average = 1
Total in-flight flits = 1 (0 measured)
Class 6:
Packet latency average = 26.0018
	minimum = 26
	maximum = 28
Network latency average = 22.0018
	minimum = 22
	maximum = 24
Slowest packet = 6
Flit latency average = 22.0018
	minimum = 22
	maximum = 24
Slowest flit = 27
Fragmentation average = 0
	minimum = 0
	maximum = 0
Injected packet rate average = 0.00390625
	minimum = 0 (at node 0)
	maximum = 0.0625 (at node 4)
Accepted packet rate average = 0.00390612
	minimum = 0 (at node 0)
	maximum = 0.062498 (at node 2)
Injected flit rate average = 0.00390625
	minimum = 0 (at node 0)
	maximum = 0.0625 (at node 4)
Accepted flit rate average= 0.00390612
	minimum = 0 (at node 0)
	maximum = 0.062498 (at node 2)
Injected packet length average = 1
Accepted packet length average = 1
Total in-flight flits = 1 (0 measured)
Class 7:
Packet latency average = 17.0001
	minimum = 17
	maximum = 19
Network latency average = 12.0001
	minimum = 12
	maximum = 14
Slowest packet = 7
Flit latency average = 12.0001
	minimum = 12
	maximum = 14
Slowest flit = 7
Fragmentation average = 0
	minimum = 0
	maximum = 0
Injected packet rate average = 0.00390625
	minimum = 0 (at node 0)
	maximum = 0.0625 (at node 4)
Accepted packet rate average = 0.00390612
	minimum = 0 (at node 0)
	maximum = 0.062498 (at node 5)
Injected flit rate average = 0.00390625
	minimum = 0 (at node 0)
	maximum = 0.0625 (at node 4)
Accepted flit rate average= 0.00390612
	minimum = 0 (at node 0)
	maximum = 0.062498 (at node 5)
Injected packet length average = 1
Accepted packet length average = 1
Total in-flight flits = 1 (0 measured)
Class 8:
Packet latency average = 12
	minimum = 12
	maximum = 12
Network latency average = 12
	minimum = 12
	maximum = 12
Slowest packet = 8
Flit latency average = 12
	minimum = 12
	maximum = 12
Slowest flit = 8
Fragmentation average = 0
	minimum = 0
	maximum = 0
Injected packet rate average = 0.00390625
	minimum = 0 (at node 0)
	maximum = 0.0625 (at node 4)
Accepted packet rate average = 0.00390625
	minimum = 0 (at node 0)
	maximum = 0.0625 (at node 8)
Injected flit rate average = 0.00390625
	minimum = 0 (at node 0)
	maximum = 0.0625 (at node 4)
Accepted flit rate average= 0.00390625
	minimum = 0 (at node 0)
	maximum = 0.0625 (at node 8)
Injected packet length average = 1
Accepted packet length average = 1
Total in-flight flits = 0 (0 measured)
Class 9:
Packet latency average = 18
	minimum = 18
	maximum = 18
Network latency average = 17
	minimum = 17
	maximum = 17
Slowest packet = 9
Flit latency average = 17
	minimum = 17
	maximum = 17
Slowest flit = 9
Fragmentation average = 0
	minimum = 0
	maximum = 0
Injected packet rate average = 0.00390625
	minimum = 0 (at node 0)
	maximum = 0.0625 (at node 4)
Accepted packet rate average = 0.00390612
	minimum = 0 (at node 0)
	maximum = 0.062498 (at node 9)
Injected flit rate average = 0.00390625
	minimum = 0 (at node 0)
	maximum = 0.0625 (at node 4)
Accepted flit rate average= 0.00390612
	minimum = 0 (at node 0)
	maximum = 0.062498 (at node 9)
Injected packet length average = 1
Accepted packet length average = 1
Total in-flight flits = 1 (0 measured)
Class 10:
Packet latency average = 24.0002
	minimum = 24
	maximum = 25
Network latency average = 22.0002
	minimum = 22
	maximum = 23
Slowest packet = 10
Flit latency average = 22.0002
	minimum = 22
	maximum = 23
Slowest flit = 11697
Fragmentation average = 0
	minimum = 0
	maximum = 0
Injected packet rate average = 0.00390625
	minimum = 0 (at node 0)
	maximum = 0.0625 (at node 4)
Accepted packet rate average = 0.00390612
	minimum = 0 (at node 0)
	maximum = 0.062498 (at node 10)
Injected flit rate average = 0.00390625
	minimum = 0 (at node 0)
	maximum = 0.0625 (at node 4)
Accepted flit rate average= 0.00390612
	minimum = 0 (at node 0)
	maximum = 0.062498 (at node 10)
Injected packet length average = 1
Accepted packet length average = 1
Total in-flight flits = 1 (0 measured)
Class 11:
Packet latency average = 12.1273
	minimum = 12
	maximum = 14
Network latency average = 12.1273
	minimum = 12
	maximum = 14
Slowest packet = 489
Flit latency average = 12.1273
	minimum = 12
	maximum = 14
Slowest flit = 489
Fragmentation average = 0
	minimum = 0
	maximum = 0
Injected packet rate average = 0.0005
	minimum = 0 (at node 0)
	maximum = 0.008 (at node 5)
Accepted packet rate average = 0.0005
	minimum = 0 (at node 0)
	maximum = 0.008 (at node 6)
Injected flit rate average = 0.0005
	minimum = 0 (at node 0)
	maximum = 0.008 (at node 5)
Accepted flit rate average= 0.0005
	minimum = 0 (at node 0)
	maximum = 0.008 (at node 6)
Injected packet length average = 1
Accepted packet length average = 1
Total in-flight flits = 0 (0 measured)
Class 12:
Packet latency average = 13.0625
	minimum = 13
	maximum = 14
Network latency average = 12.0625
	minimum = 12
	maximum = 13
Slowest packet = 12
Flit latency average = 12.0625
	minimum = 12
	maximum = 13
Slowest flit = 287
Fragmentation average = 0
	minimum = 0
	maximum = 0
Injected packet rate average = 0.0005
	minimum = 0 (at node 0)
	maximum = 0.008 (at node 6)
Accepted packet rate average = 0.0005
	minimum = 0 (at node 0)
	maximum = 0.008 (at node 5)
Injected flit rate average = 0.0005
	minimum = 0 (at node 0)
	maximum = 0.008 (at node 6)
Accepted flit rate average= 0.0005
	minimum = 0 (at node 0)
	maximum = 0.008 (at node 5)
Injected packet length average = 1
Accepted packet length average = 1
Total in-flight flits = 0 (0 measured)
Class 13:
Packet latency average = 22.0015
	minimum = 22
	maximum = 24
Network latency average = 22.0015
	minimum = 22
	maximum = 24
Slowest packet = 10525
Flit latency average = 22.0015
	minimum = 22
	maximum = 24
Slowest flit = 10525
Fragmentation average = 0
	minimum = 0
	maximum = 0
Injected packet rate average = 0.0005
	minimum = 0 (at node 0)
	maximum = 0.008 (at node 6)
Accepted packet rate average = 0.0005
	minimum = 0 (at node 0)
	maximum = 0.008 (at node 15)
Injected flit rate average = 0.0005
	minimum = 0 (at node 0)
	maximum = 0.008 (at node 6)
Accepted flit rate average= 0.0005
	minimum = 0 (at node 0)
	maximum = 0.008 (at node 15)
Injected packet length average = 1
Accepted packet length average = 1
Total in-flight flits = 0 (0 measured)
Class 14:
Packet latency average = 12
	minimum = 12
	maximum = 12
Network latency average = 12
	minimum = 12
	maximum = 12
Slowest packet = 14
Flit latency average = 12
	minimum = 12
	maximum = 12
Slowest flit = 14
Fragmentation average = 0
	minimum = 0
	maximum = 0
Injected packet rate average = 0.0005
	minimum = 0 (at node 0)
	maximum = 0.008 (at node 8)
Accepted packet rate average = 0.0005
	minimum = 0 (at node 0)
	maximum = 0.008 (at node 12)
Injected flit rate average = 0.0005
	minimum = 0 (at node 0)
	maximum = 0.008 (at node 8)
Accepted flit rate average= 0.0005
	minimum = 0 (at node 0)
	maximum = 0.008 (at node 12)
Injected packet length average = 1
Accepted packet length average = 1
Total in-flight flits = 0 (0 measured)
Class 15:
Packet latency average = 12
	minimum = 12
	maximum = 12
Network latency average = 12
	minimum = 12
	maximum = 12
Slowest packet = 15
Flit latency average = 12
	minimum = 12
	maximum = 12
Slowest flit = 15
Fragmentation average = 0
	minimum = 0
	maximum = 0
Injected packet rate average = 0.0005
	minimum = 0 (at node 0)
	maximum = 0.008 (at node 9)
Accepted packet rate average = 0.0005
	minimum = 0 (at node 0)
	maximum = 0.008 (at node 13)
Injected flit rate average = 0.0005
	minimum = 0 (at node 0)
	maximum = 0.008 (at node 9)
Accepted flit rate average= 0.0005
	minimum = 0 (at node 0)
	maximum = 0.008 (at node 13)
Injected packet length average = 1
Accepted packet length average = 1
Total in-flight flits = 0 (0 measured)
Class 16:
Packet latency average = 12
	minimum = 12
	maximum = 12
Network latency average = 12
	minimum = 12
	maximum = 12
Slowest packet = 16
Flit latency average = 12
	minimum = 12
	maximum = 12
Slowest flit = 16
Fragmentation average = 0
	minimum = 0
	maximum = 0
Injected packet rate average = 0.0005
	minimum = 0 (at node 0)
	maximum = 0.008 (at node 10)
Accepted packet rate average = 0.0005
	minimum = 0 (at node 0)
	maximum = 0.008 (at node 14)
Injected flit rate average = 0.0005
	minimum = 0 (at node 0)
	maximum = 0.008 (at node 10)
Accepted flit rate average= 0.0005
	minimum = 0 (at node 0)
	maximum = 0.008 (at node 14)
Injected packet length average = 1
Accepted packet length average = 1
Total in-flight flits = 0 (0 measured)
Class 17:
Packet latency average = 12.0328
	minimum = 12
	maximum = 13
Network latency average = 12.0015
	minimum = 12
	maximum = 13
Slowest packet = 17
Flit latency average = 12.0015
	minimum = 12
	maximum = 13
Slowest flit = 22844
Fragmentation average = 0
	minimum = 0
	maximum = 0
Injected packet rate average = 0.0005
	minimum = 0 (at node 0)
	maximum = 0.008 (at node 11)
Accepted packet rate average = 0.0005
	minimum = 0 (at node 0)
	maximum = 0.008 (at node 7)
Injected flit rate average = 0.0005
	minimum = 0 (at node 0)
	maximum = 0.008 (at node 11)
Accepted flit rate average= 0.0005
	minimum = 0 (at node 0)
	maximum = 0.008 (at node 7)
Injected packet length average = 1
Accepted packet length average = 1
Total in-flight flits = 0 (0 measured)
Class 18:
Packet latency average = 12.0408
	minimum = 12
	maximum = 14
Network latency average = 12.0408
	minimum = 12
	maximum = 14
Slowest packet = 994
Flit latency average = 12.0408
	minimum = 12
	maximum = 14
Slowest flit = 994
Fragmentation average = 0
	minimum = 0
	maximum = 0
Injected packet rate average = 0.00195312
	minimum = 0 (at node 0)
	maximum = 0.03125 (at node 11)
Accepted packet rate average = 0.00195312
	minimum = 0 (at node 0)
	maximum = 0.03125 (at node 15)
Injected flit rate average = 0.00195312
	minimum = 0 (at node 0)
	maximum = 0.03125 (at node 11)
Accepted flit rate average= 0.00195312
	minimum = 0 (at node 0)
	maximum = 0.03125 (at node 15)
Injected packet length average = 1
Accepted packet length average = 1
Total in-flight flits = 0 (0 measured)
Class 19:
Packet latency average = 12.0625
	minimum = 12
	maximum = 13
Network latency average = 12.0625
	minimum = 12
	maximum = 13
Slowest packet = 19
Flit latency average = 12.0625
	minimum = 12
	maximum = 13
Slowest flit = 19
Fragmentation average = 0
	minimum = 0
	maximum = 0
Injected packet rate average = 0.0005
	minimum = 0 (at node 0)
	maximum = 0.008 (at node 12)
Accepted packet rate average = 0.0005
	minimum = 0 (at node 0)
	maximum = 0.008 (at node 8)
Injected flit rate average = 0.0005
	minimum = 0 (at node 0)
	maximum = 0.008 (at node 12)
Accepted flit rate average= 0.0005
	minimum = 0 (at node 0)
	maximum = 0.008 (at node 8)
Injected packet length average = 1
Accepted packet length average = 1
Total in-flight flits = 0 (0 measured)
Class 20:
Packet latency average = 23
	minimum = 23
	maximum = 23
Network latency average = 22
	minimum = 22
	maximum = 22
Slowest packet = 20
Flit latency average = 22
	minimum = 22
	maximum = 22
Slowest flit = 20
Fragmentation average = 0
	minimum = 0
	maximum = 0
Injected packet rate average = 0.0005
	minimum = 0 (at node 0)
	maximum = 0.008 (at node 12)
Accepted packet rate average = 0.0005
	minimum = 0 (at node 0)
	maximum = 0.008 (at node 15)
Injected flit rate average = 0.0005
	minimum = 0 (at node 0)
	maximum = 0.008 (at node 12)
Accepted flit rate average= 0.0005
	minimum = 0 (at node 0)
	maximum = 0.008 (at node 15)
Injected packet length average = 1
Accepted packet length average = 1
Total in-flight flits = 0 (0 measured)
Class 21:
Packet latency average = 12.0625
	minimum = 12
	maximum = 13
Network latency average = 12.0625
	minimum = 12
	maximum = 13
Slowest packet = 984
Flit latency average = 12.0625
	minimum = 12
	maximum = 13
Slowest flit = 984
Fragmentation average = 0
	minimum = 0
	maximum = 0
Injected packet rate average = 0.0005
	minimum = 0 (at node 0)
	maximum = 0.008 (at node 13)
Accepted packet rate average = 0.0005
	minimum = 0 (at node 0)
	maximum = 0.008 (at node 9)
Injected flit rate average = 0.0005
	minimum = 0 (at node 0)
	maximum = 0.008 (at node 13)
Accepted flit rate average= 0.0005
	minimum = 0 (at node 0)
	maximum = 0.008 (at node 9)
Injected packet length average = 1
Accepted packet length average = 1
Total in-flight flits = 0 (0 measured)
Class 22:
Packet latency average = 18
	minimum = 18
	maximum = 18
Network latency average = 17
	minimum = 17
	maximum = 17
Slowest packet = 22
Flit latency average = 17
	minimum = 17
	maximum = 17
Slowest flit = 22
Fragmentation average = 0
	minimum = 0
	maximum = 0
Injected packet rate average = 0.0005
	minimum = 0 (at node 0)
	maximum = 0.008 (at node 13)
Accepted packet rate average = 0.0005
	minimum = 0 (at node 0)
	maximum = 0.008 (at node 15)
Injected flit rate average = 0.0005
	minimum = 0 (at node 0)
	maximum = 0.008 (at node 13)
Accepted flit rate average= 0.0005
	minimum = 0 (at node 0)
	maximum = 0.008 (at node 15)
Injected packet length average = 1
Accepted packet length average = 1
Total in-flight flits = 0 (0 measured)
Class 23:
Packet latency average = 12.0625
	minimum = 12
	maximum = 13
Network latency average = 12.0625
	minimum = 12
	maximum = 13
Slowest packet = 847
Flit latency average = 12.0625
	minimum = 12
	maximum = 13
Slowest flit = 847
Fragmentation average = 0
	minimum = 0
	maximum = 0
Injected packet rate average = 0.0005
	minimum = 0 (at node 0)
	maximum = 0.008 (at node 14)
Accepted packet rate average = 0.0005
	minimum = 0 (at node 0)
	maximum = 0.008 (at node 10)
Injected flit rate average = 0.0005
	minimum = 0 (at node 0)
	maximum = 0.008 (at node 14)
Accepted flit rate average= 0.0005
	minimum = 0 (at node 0)
	maximum = 0.008 (at node 10)
Injected packet length average = 1
Accepted packet length average = 1
Total in-flight flits = 0 (0 measured)
Class 24:
Packet latency average = 13
	minimum = 13
	maximum = 13
Network latency average = 12
	minimum = 12
	maximum = 12
Slowest packet = 24
Flit latency average = 12
	minimum = 12
	maximum = 12
Slowest flit = 24
Fragmentation average = 0
	minimum = 0
	maximum = 0
Injected packet rate average = 0.0005
	minimum = 0 (at node 0)
	maximum = 0.008 (at node 14)
Accepted packet rate average = 0.0005
	minimum = 0 (at node 0)
	maximum = 0.008 (at node 15)
Injected flit rate average = 0.0005
	minimum = 0 (at node 0)
	maximum = 0.008 (at node 14)
Accepted flit rate average= 0.0005
	minimum = 0 (at node 0)
	maximum = 0.008 (at node 15)
Injected packet length average = 1
Accepted packet length average = 1
Total in-flight flits = 0 (0 measured)
Class 25:
Packet latency average = 12
	minimum = 12
	maximum = 12
Network latency average = 12
	minimum = 12
	maximum = 12
Slowest packet = 25
Flit latency average = 12
	minimum = 12
	maximum = 12
Slowest flit = 25
Fragmentation average = 0
	minimum = 0
	maximum = 0
Injected packet rate average = 0.00195312
	minimum = 0 (at node 0)
	maximum = 0.03125 (at node 15)
Accepted packet rate average = 0.00195312
	minimum = 0 (at node 0)
	maximum = 0.03125 (at node 11)
Injected flit rate average = 0.00195312
	minimum = 0 (at node 0)
	maximum = 0.03125 (at node 15)
Accepted flit rate average= 0.00195312
	minimum = 0 (at node 0)
	maximum = 0.03125 (at node 11)
Injected packet length average = 1
Accepted packet length average = 1
Total in-flight flits = 0 (0 measured)
latency change    = 1
throughput change = 1
latency change    = 1
throughput change = 1
latency change    = 1
throughput change = 1
latency change    = 1
throughput change = 1
latency change    = 1
throughput change = 1
latency change    = 1
throughput change = 1
latency change    = 1
throughput change = 1
latency change    = 1
throughput change = 1
latency change    = 1
throughput change = 1
latency change    = 1
throughput change = 1
latency change    = 1
throughput change = 1
latency change    = 1
throughput change = 1
latency change    = 1
throughput change = 1
latency change    = 1
throughput change = 1
latency change    = 1
throughput change = 1
latency change    = 1
throughput change = 1
latency change    = 1
throughput change = 1
latency change    = 1
throughput change = 1
latency change    = 1
throughput change = 1
latency change    = 1
throughput change = 1
latency change    = 1
throughput change = 1
latency change    = 1
throughput change = 1
latency change    = 1
throughput change = 1
latency change    = 1
throughput change = 1
latency change    = 1
throughput change = 1
latency change    = 1
throughput change = 1
Class 0:
Packet latency average = 17
	minimum = 17
	maximum = 17
Network latency average = 17
	minimum = 17
	maximum = 17
Slowest packet = 0
Flit latency average = 17
	minimum = 17
	maximum = 17
Slowest flit = 0
Fragmentation average = 0
	minimum = 0
	maximum = 0
Injected packet rate average = 0.000125
	minimum = 0 (at node 0)
	maximum = 0.002 (at node 1)
Accepted packet rate average = 0.000125
	minimum = 0 (at node 0)
	maximum = 0.002 (at node 3)
Injected flit rate average = 0.000125
	minimum = 0 (at node 0)
	maximum = 0.002 (at node 1)
Accepted flit rate average= 0.000125
	minimum = 0 (at node 0)
	maximum = 0.002 (at node 3)
Injected packet length average = 1
Accepted packet length average = 1
Total in-flight flits = 0 (0 measured)
Class 1:
Packet latency average = 12
	minimum = 12
	maximum = 12
Network latency average = 12
	minimum = 12
	maximum = 12
Slowest packet = 1
Flit latency average = 12
	minimum = 12
	maximum = 12
Slowest flit = 1
Fragmentation average = 0
	minimum = 0
	maximum = 0
Injected packet rate average = 0.000125
	minimum = 0 (at node 0)
	maximum = 0.002 (at node 2)
Accepted packet rate average = 0.000125
	minimum = 0 (at node 0)
	maximum = 0.002 (at node 3)
Injected flit rate average = 0.000125
	minimum = 0 (at node 0)
	maximum = 0.002 (at node 2)
Accepted flit rate average= 0.000125
	minimum = 0 (at node 0)
	maximum = 0.002 (at node 3)
Injected packet length average = 1
Accepted packet length average = 1
Total in-flight flits = 0 (0 measured)
Class 2:
Packet latency average = 17
	minimum = 17
	maximum = 17
Network latency average = 17
	minimum = 17
	maximum = 17
Slowest packet = 2
Flit latency average = 17
	minimum = 17
	maximum = 17
Slowest flit = 2
Fragmentation average = 0
	minimum = 0
	maximum = 0
Injected packet rate average = 0.000125
	minimum = 0 (at node 0)
	maximum = 0.002 (at node 3)
Accepted packet rate average = 0.000125
	minimum = 0 (at node 0)
	maximum = 0.002 (at node 1)
Injected flit rate average = 0.000125
	minimum = 0 (at node 0)
	maximum = 0.002 (at node 3)
Accepted flit rate average= 0.000125
	minimum = 0 (at node 0)
	maximum = 0.002 (at node 1)
Injected packet length average = 1
Accepted packet length average = 1
Total in-flight flits = 0 (0 measured)
Class 3:
Packet latency average = 13
	minimum = 13
	maximum = 13
Network latency average = 12
	minimum = 12
	maximum = 12
Slowest packet = 3
Flit latency average = 12
	minimum = 12
	maximum = 12
Slowest flit = 3
Fragmentation average = 0
	minimum = 0
	maximum = 0
Injected packet rate average = 0.000125
	minimum = 0 (at node 0)
	maximum = 0.002 (at node 3)
Accepted packet rate average = 0.000125
	minimum = 0 (at node 0)
	maximum = 0.002 (at node 2)
Injected flit rate average = 0.000125
	minimum = 0 (at node 0)
	maximum = 0.002 (at node 3)
Accepted flit rate average= 0.000125
	minimum = 0 (at node 0)
	maximum = 0.002 (at node 2)
Injected packet length average = 1
Accepted packet length average = 1
Total in-flight flits = 0 (0 measured)
Class 4:
Packet latency average = 12.0164
	minimum = 12
	maximum = 14
Network latency average = 12
	minimum = 12
	maximum = 12
Slowest packet = 4
Flit latency average = 12
	minimum = 12
	maximum = 12
Slowest flit = 4
Fragmentation average = 0
	minimum = 0
	maximum = 0
Injected packet rate average = 0.000244187
	minimum = 0 (at node 0)
	maximum = 0.003907 (at node 3)
Accepted packet rate average = 0.000244187
	minimum = 0 (at node 0)
	maximum = 0.003907 (at node 7)
Injected flit rate average = 0.000244187
	minimum = 0 (at node 0)
	maximum = 0.003907 (at node 3)
Accepted flit rate average= 0.000244187
	minimum = 0 (at node 0)
	maximum = 0.003907 (at node 7)
Injected packet length average = 1
Accepted packet length average = 1
Total in-flight flits = 0 (0 measured)
Class 5:
Packet latency average = 20
	minimum = 20
	maximum = 21
Network latency average = 17
	minimum = 17
	maximum = 18
Slowest packet = 5
Flit latency average = 17
	minimum = 17
	maximum = 18
Slowest flit = 5
Fragmentation average = 0
	minimum = 0
	maximum = 0
Injected packet rate average = 0.00390625
	minimum = 0 (at node 0)
	maximum = 0.0625 (at node 4)
Accepted packet rate average = 0.00390619
	minimum = 0 (at node 0)
	maximum = 0.062499 (at node 1)
Injected flit rate average = 0.00390625
	minimum = 0 (at node 0)
	maximum = 0.0625 (at node 4)
Accepted flit rate average= 0.00390619
	minimum = 0 (at node 0)
	maximum = 0.062499 (at node 1)
Injected packet length average = 1
Accepted packet length average = 1
Total in-flight flits = 1 (0 measured)
Class 6:
Packet latency average = 26.0009
	minimum = 26
	maximum = 28
Network latency average = 22.0009
	minimum = 22
	maximum = 24
Slowest packet = 6
Flit latency average = 22.0009
	minimum = 22
	maximum = 24
Slowest flit = 27
Fragmentation average = 0
	minimum = 0
	maximum = 0
Injected packet rate average = 0.00390625
	minimum = 0 (at node 0)
	maximum = 0.0625 (at node 4)
Accepted packet rate average = 0.00390619
	minimum = 0 (at node 0)
	maximum = 0.062499 (at node 2)
Injected flit rate average = 0.00390625
	minimum = 0 (at node 0)
	maximum = 0.0625 (at node 4)
Accepted flit rate average= 0.00390619
	minimum = 0 (at node 0)
	maximum = 0.062499 (at node 2)
Injected packet length average = 1
Accepted packet length average = 1
Total in-flight flits = 1 (0 measured)
Class 7:
Packet latency average = 17
	minimum = 17
	maximum = 19
Network latency average = 12
	minimum = 12
	maximum = 14
Slowest packet = 7
Flit latency average = 12
	minimum = 12
	maximum = 14
Slowest flit = 7
Fragmentation average = 0
	minimum = 0
	maximum = 0
Injected packet rate average = 0.00390625
	minimum = 0 (at node 0)
	maximum = 0.0625 (at node 4)
Accepted packet rate average = 0.00390619
	minimum = 0 (at node 0)
	maximum = 0.062499 (at node 5)
Injected flit rate average = 0.00390625
	minimum = 0 (at node 0)
	maximum = 0.0625 (at node 4)
Accepted flit rate average= 0.00390619
	minimum = 0 (at node 0)
	maximum = 0.062499 (at node 5)
Injected packet length average = 1
Accepted packet length average = 1
Total in-flight flits = 1 (0 measured)
Class 8:
Packet latency average = 12
	minimum = 12
	maximum = 12
Network latency average = 12
	minimum = 12
	maximum = 12
Slowest packet = 8
Flit latency average = 12
	minimum = 12
	maximum = 12
Slowest flit = 8
Fragmentation average = 0
	minimum = 0
	maximum = 0
Injected packet rate average = 0.00390625
	minimum = 0 (at node 0)
	maximum = 0.0625 (at node 4)
Accepted packet rate average = 0.00390625
	minimum = 0 (at node 0)
	maximum = 0.0625 (at node 8)
Injected flit rate average = 0.00390625
	minimum = 0 (at node 0)
	maximum = 0.0625 (at node 4)
Accepted flit rate average= 0.00390625
	minimum = 0 (at node 0)
	maximum = 0.0625 (at node 8)
Injected packet length average = 1
Accepted packet length average = 1
Total in-flight flits = 0 (0 measured)
Class 9:
Packet latency average = 18
	minimum = 18
	maximum = 18
Network latency average = 17
	minimum = 17
	maximum = 17
Slowest packet = 9
Flit latency average = 17
	minimum = 17
	maximum = 17
Slowest flit = 9
Fragmentation average = 0
	minimum = 0
	maximum = 0
Injected packet rate average = 0.00390625
	minimum = 0 (at node 0)
	maximum = 0.0625 (at node 4)
Accepted packet rate average = 0.00390619
	minimum = 0 (at node 0)
	maximum = 0.062499 (at node 9)
Injected flit rate average = 0.00390625
	minimum = 0 (at node 0)
	maximum = 0.0625 (at node 4)
Accepted flit rate average= 0.00390619
	minimum = 0 (at node 0)
	maximum = 0.062499 (at node 9)
Injected packet length average = 1
Accepted packet length average = 1
Total in-flight flits = 1 (0 measured)
Class 10:
Packet latency average = 24.0002
	minimum = 24
	maximum = 25
Network latency average = 22.0002
	minimum = 22
	maximum = 23
Slowest packet = 10
Flit latency average = 22.0002
	minimum = 22
	maximum = 23
Slowest flit = 11697
Fragmentation average = 0
	minimum = 0
	maximum = 0
Injected packet rate average = 0.00390625
	minimum = 0 (at node 0)
	maximum = 0.0625 (at node 4)
Accepted packet rate average = 0.00390619
	minimum = 0 (at node 0)
	maximum = 0.062499 (at node 10)
Injected flit rate average = 0.00390625
	minimum = 0 (at node 0)
	maximum = 0.0625 (at node 4)
Accepted flit rate average= 0.00390619
	minimum = 0 (at node 0)
	maximum = 0.062499 (at node 10)
Injected packet length average = 1
Accepted packet length average = 1
Total in-flight flits = 1 (0 measured)
Class 11:
Packet latency average = 12.1265
	minimum = 12
	maximum = 14
Network latency average = 12.1265
	minimum = 12
	maximum = 14
Slowest packet = 489
Flit latency average = 12.1265
	minimum = 12
	maximum = 14
Slowest flit = 489
Fragmentation average = 0
	minimum = 0
	maximum = 0
Injected packet rate average = 0.0005
	minimum = 0 (at node 0)
	maximum = 0.008 (at node 5)
Accepted packet rate average = 0.0005
	minimum = 0 (at node 0)
	maximum = 0.008 (at node 6)
Injected flit rate average = 0.0005
	minimum = 0 (at node 0)
	maximum = 0.008 (at node 5)
Accepted flit rate average= 0.0005
	minimum = 0 (at node 0)
	maximum = 0.008 (at node 6)
Injected packet length average = 1
Accepted packet length average = 1
Total in-flight flits = 0 (0 measured)
Class 12:
Packet latency average = 13.0625
	minimum = 13
	maximum = 14
Network latency average = 12.0625
	minimum = 12
	maximum = 13
Slowest packet = 12
Flit latency average = 12.0625
	minimum = 12
	maximum = 13
Slowest flit = 287
Fragmentation average = 0
	minimum = 0
	maximum = 0
Injected packet rate average = 0.0005
	minimum = 0 (at node 0)
	maximum = 0.008 (at node 6)
Accepted packet rate average = 0.0005
	minimum = 0 (at node 0)
	maximum = 0.008 (at node 5)
Injected flit rate average = 0.0005
	minimum = 0 (at node 0)
	maximum = 0.008 (at node 6)
Accepted flit rate average= 0.0005
	minimum = 0 (at node 0)
	maximum = 0.008 (at node 5)
Injected packet length average = 1
Accepted packet length average = 1
Total in-flight flits = 0 (0 measured)
Class 13:
Packet latency average = 22.001
	minimum = 22
	maximum = 24
Network latency average = 22.001
	minimum = 22
	maximum = 24
Slowest packet = 10525
Flit latency average = 22.001
	minimum = 22
	maximum = 24
Slowest flit = 10525
Fragmentation average = 0
	minimum = 0
	maximum = 0
Injected packet rate average = 0.0005
	minimum = 0 (at node 0)
	maximum = 0.008 (at node 6)
Accepted packet rate average = 0.0005
	minimum = 0 (at node 0)
	maximum = 0.008 (at node 15)
Injected flit rate average = 0.0005
	minimum = 0 (at node 0)
	maximum = 0.008 (at node 6)
Accepted flit rate average= 0.0005
	minimum = 0 (at node 0)
	maximum = 0.008 (at node 15)
Injected packet length average = 1
Accepted packet length average = 1
Total in-flight flits = 0 (0 measured)
Class 14:
Packet latency average = 12
	minimum = 12
	maximum = 12
Network latency average = 12
	minimum = 12
	maximum = 12
Slowest packet = 14
Flit latency average = 12
	minimum = 12
	maximum = 12
Slowest flit = 14
Fragmentation average = 0
	minimum = 0
	maximum = 0
Injected packet rate average = 0.0005
	minimum = 0 (at node 0)
	maximum = 0.008 (at node 8)
Accepted packet rate average = 0.0005
	minimum = 0 (at node 0)
	maximum = 0.008 (at node 12)
Injected flit rate average = 0.0005
	minimum = 0 (at node 0)
	maximum = 0.008 (at node 8)
Accepted flit rate average= 0.0005
	minimum = 0 (at node 0)
	maximum = 0.008 (at node 12)
Injected packet length average = 1
Accepted packet length average = 1
Total in-flight flits = 0 (0 measured)
Class 15:
Packet latency average = 12
	minimum = 12
	maximum = 12
Network latency average = 12
	minimum = 12
	maximum = 12
Slowest packet = 15
Flit latency average = 12
	minimum = 12
	maximum = 12
Slowest flit = 15
Fragmentation average = 0
	minimum = 0
	maximum = 0
Injected packet rate average = 0.0005
	minimum = 0 (at node 0)
	maximum = 0.008 (at node 9)
Accepted packet rate average = 0.0005
	minimum = 0 (at node 0)
	maximum = 0.008 (at node 13)
Injected flit rate average = 0.0005
	minimum = 0 (at node 0)
	maximum = 0.008 (at node 9)
Accepted flit rate average= 0.0005
	minimum = 0 (at node 0)
	maximum = 0.008 (at node 13)
Injected packet length average = 1
Accepted packet length average = 1
Total in-flight flits = 0 (0 measured)
Class 16:
Packet latency average = 12
	minimum = 12
	maximum = 12
Network latency average = 12
	minimum = 12
	maximum = 12
Slowest packet = 16
Flit latency average = 12
	minimum = 12
	maximum = 12
Slowest flit = 16
Fragmentation average = 0
	minimum = 0
	maximum = 0
Injected packet rate average = 0.0005
	minimum = 0 (at node 0)
	maximum = 0.008 (at node 10)
Accepted packet rate average = 0.0005
	minimum = 0 (at node 0)
	maximum = 0.008 (at node 14)
Injected flit rate average = 0.0005
	minimum = 0 (at node 0)
	maximum = 0.008 (at node 10)
Accepted flit rate average= 0.0005
	minimum = 0 (at node 0)
	maximum = 0.008 (at node 14)
Injected packet length average = 1
Accepted packet length average = 1
Total in-flight flits = 0 (0 measured)
Class 17:
Packet latency average = 12.0328
	minimum = 12
	maximum = 13
Network latency average = 12.0015
	minimum = 12
	maximum = 13
Slowest packet = 17
Flit latency average = 12.0015
	minimum = 12
	maximum = 13
Slowest flit = 22844
Fragmentation average = 0
	minimum = 0
	maximum = 0
Injected packet rate average = 0.0005
	minimum = 0 (at node 0)
	maximum = 0.008 (at node 11)
Accepted packet rate average = 0.0005
	minimum = 0 (at node 0)
	maximum = 0.008 (at node 7)
Injected flit rate average = 0.0005
	minimum = 0 (at node 0)
	maximum = 0.008 (at node 11)
Accepted flit rate average= 0.0005
	minimum = 0 (at node 0)
	maximum = 0.008 (at node 7)
Injected packet length average = 1
Accepted packet length average = 1
Total in-flight flits = 0 (0 measured)
Class 18:
Packet latency average = 12.0406
	minimum = 12
	maximum = 14
Network latency average = 12.0406
	minimum = 12
	maximum = 14
Slowest packet = 994
Flit latency average = 12.0406
	minimum = 12
	maximum = 14
Slowest flit = 994
Fragmentation average = 0
	minimum = 0
	maximum = 0
Injected packet rate average = 0.00195312
	minimum = 0 (at node 0)
	maximum = 0.03125 (at node 11)
Accepted packet rate average = 0.00195312
	minimum = 0 (at node 0)
	maximum = 0.03125 (at node 15)
Injected flit rate average = 0.00195312
	minimum = 0 (at node 0)
	maximum = 0.03125 (at node 11)
Accepted flit rate average= 0.00195312
	minimum = 0 (at node 0)
	maximum = 0.03125 (at node 15)
Injected packet length average = 1
Accepted packet length average = 1
Total in-flight flits = 0 (0 measured)
Class 19:
Packet latency average = 12.0625
	minimum = 12
	maximum = 13
Network latency average = 12.0625
	minimum = 12
	maximum = 13
Slowest packet = 19
Flit latency average = 12.0625
	minimum = 12
	maximum = 13
Slowest flit = 19
Fragmentation average = 0
	minimum = 0
	maximum = 0
Injected packet rate average = 0.0005
	minimum = 0 (at node 0)
	maximum = 0.008 (at node 12)
Accepted packet rate average = 0.0005
	minimum = 0 (at node 0)
	maximum = 0.008 (at node 8)
Injected flit rate average = 0.0005
	minimum = 0 (at node 0)
	maximum = 0.008 (at node 12)
Accepted flit rate average= 0.0005
	minimum = 0 (at node 0)
	maximum = 0.008 (at node 8)
Injected packet length average = 1
Accepted packet length average = 1
Total in-flight flits = 0 (0 measured)
Class 20:
Packet latency average = 23
	minimum = 23
	maximum = 23
Network latency average = 22
	minimum = 22
	maximum = 22
Slowest packet = 20
Flit latency average = 22
	minimum = 22
	maximum = 22
Slowest flit = 20
Fragmentation average = 0
	minimum = 0
	maximum = 0
Injected packet rate average = 0.0005
	minimum = 0 (at node 0)
	maximum = 0.008 (at node 12)
Accepted packet rate average = 0.0005
	minimum = 0 (at node 0)
	maximum = 0.008 (at node 15)
Injected flit rate average = 0.0005
	minimum = 0 (at node 0)
	maximum = 0.008 (at node 12)
Accepted flit rate average= 0.0005
	minimum = 0 (at node 0)
	maximum = 0.008 (at node 15)
Injected packet length average = 1
Accepted packet length average = 1
Total in-flight flits = 0 (0 measured)
Class 21:
Packet latency average = 12.0625
	minimum = 12
	maximum = 13
Network latency average = 12.0625
	minimum = 12
	maximum = 13
Slowest packet = 984
Flit latency average = 12.0625
	minimum = 12
	maximum = 13
Slowest flit = 984
Fragmentation average = 0
	minimum = 0
	maximum = 0
Injected packet rate average = 0.0005
	minimum = 0 (at node 0)
	maximum = 0.008 (at node 13)
Accepted packet rate average = 0.0005
	minimum = 0 (at node 0)
	maximum = 0.008 (at node 9)
Injected flit rate average = 0.0005
	minimum = 0 (at node 0)
	maximum = 0.008 (at node 13)
Accepted flit rate average= 0.0005
	minimum = 0 (at node 0)
	maximum = 0.008 (at node 9)
Injected packet length average = 1
Accepted packet length average = 1
Total in-flight flits = 0 (0 measured)
Class 22:
Packet latency average = 18
	minimum = 18
	maximum = 18
Network latency average = 17
	minimum = 17
	maximum = 17
Slowest packet = 22
Flit latency average = 17
	minimum = 17
	maximum = 17
Slowest flit = 22
Fragmentation average = 0
	minimum = 0
	maximum = 0
Injected packet rate average = 0.0005
	minimum = 0 (at node 0)
	maximum = 0.008 (at node 13)
Accepted packet rate average = 0.0005
	minimum = 0 (at node 0)
	maximum = 0.008 (at node 15)
Injected flit rate average = 0.0005
	minimum = 0 (at node 0)
	maximum = 0.008 (at node 13)
Accepted flit rate average= 0.0005
	minimum = 0 (at node 0)
	maximum = 0.008 (at node 15)
Injected packet length average = 1
Accepted packet length average = 1
Total in-flight flits = 0 (0 measured)
Class 23:
Packet latency average = 12.0625
	minimum = 12
	maximum = 13
Network latency average = 12.0625
	minimum = 12
	maximum = 13
Slowest packet = 847
Flit latency average = 12.0625
	minimum = 12
	maximum = 13
Slowest flit = 847
Fragmentation average = 0
	minimum = 0
	maximum = 0
Injected packet rate average = 0.0005
	minimum = 0 (at node 0)
	maximum = 0.008 (at node 14)
Accepted packet rate average = 0.0005
	minimum = 0 (at node 0)
	maximum = 0.008 (at node 10)
Injected flit rate average = 0.0005
	minimum = 0 (at node 0)
	maximum = 0.008 (at node 14)
Accepted flit rate average= 0.0005
	minimum = 0 (at node 0)
	maximum = 0.008 (at node 10)
Injected packet length average = 1
Accepted packet length average = 1
Total in-flight flits = 0 (0 measured)
Class 24:
Packet latency average = 13
	minimum = 13
	maximum = 13
Network latency average = 12
	minimum = 12
	maximum = 12
Slowest packet = 24
Flit latency average = 12
	minimum = 12
	maximum = 12
Slowest flit = 24
Fragmentation average = 0
	minimum = 0
	maximum = 0
Injected packet rate average = 0.0005
	minimum = 0 (at node 0)
	maximum = 0.008 (at node 14)
Accepted packet rate average = 0.0005
	minimum = 0 (at node 0)
	maximum = 0.008 (at node 15)
Injected flit rate average = 0.0005
	minimum = 0 (at node 0)
	maximum = 0.008 (at node 14)
Accepted flit rate average= 0.0005
	minimum = 0 (at node 0)
	maximum = 0.008 (at node 15)
Injected packet length average = 1
Accepted packet length average = 1
Total in-flight flits = 0 (0 measured)
Class 25:
Packet latency average = 12
	minimum = 12
	maximum = 12
Network latency average = 12
	minimum = 12
	maximum = 12
Slowest packet = 25
Flit latency average = 12
	minimum = 12
	maximum = 12
Slowest flit = 25
Fragmentation average = 0
	minimum = 0
	maximum = 0
Injected packet rate average = 0.00195312
	minimum = 0 (at node 0)
	maximum = 0.03125 (at node 15)
Accepted packet rate average = 0.00195312
	minimum = 0 (at node 0)
	maximum = 0.03125 (at node 11)
Injected flit rate average = 0.00195312
	minimum = 0 (at node 0)
	maximum = 0.03125 (at node 15)
Accepted flit rate average= 0.00195312
	minimum = 0 (at node 0)
	maximum = 0.03125 (at node 11)
Injected packet length average = 1
Accepted packet length average = 1
Total in-flight flits = 0 (0 measured)
latency change    = 0
throughput change = 0
latency change    = 0
throughput change = 0
latency change    = 0
throughput change = 0
latency change    = 0
throughput change = 0
latency change    = 3.48826e-07
throughput change = 0.000255951
latency change    = 1.60007e-06
throughput change = 1.60003e-05
latency change    = 3.50774e-05
throughput change = 1.60003e-05
latency change    = 1.88244e-06
throughput change = 1.60003e-05
latency change    = 0
throughput change = 0
latency change    = 0
throughput change = 1.60003e-05
latency change    = 1.06671e-10
throughput change = 1.60003e-05
latency change    = 6.1848e-05
throughput change = 0
latency change    = 0
throughput change = 0
latency change    = 2.27262e-05
throughput change = 0
latency change    = 0
throughput change = 0
latency change    = 0
throughput change = 0
latency change    = 0
throughput change = 0
latency change    = 0
throughput change = 0
latency change    = 1.06307e-05
throughput change = 0
latency change    = 0
throughput change = 0
latency change    = 0
throughput change = 0
latency change    = 0
throughput change = 0
latency change    = 0
throughput change = 0
latency change    = 0
throughput change = 0
latency change    = 0
throughput change = 0
latency change    = 0
throughput change = 0
Class 0:
Packet latency average = 17
	minimum = 17
	maximum = 17
Network latency average = 17
	minimum = 17
	maximum = 17
Slowest packet = 553407
Flit latency average = 17
	minimum = 17
	maximum = 17
Slowest flit = 553407
Fragmentation average = 0
	minimum = 0
	maximum = 0
Injected packet rate average = 0.000125
	minimum = 0 (at node 0)
	maximum = 0.002 (at node 1)
Accepted packet rate average = 0.000125
	minimum = 0 (at node 0)
	maximum = 0.002 (at node 3)
Injected flit rate average = 0.000125
	minimum = 0 (at node 0)
	maximum = 0.002 (at node 1)
Accepted flit rate average= 0.000125
	minimum = 0 (at node 0)
	maximum = 0.002 (at node 3)
Injected packet length average = 1
Accepted packet length average = 1
Total in-flight flits = 0 (0 measured)
Class 1:
Packet latency average = 12
	minimum = 12
	maximum = 12
Network latency average = 12
	minimum = 12
	maximum = 12
Slowest packet = 553408
Flit latency average = 12
	minimum = 12
	maximum = 12
Slowest flit = 553408
Fragmentation average = 0
	minimum = 0
	maximum = 0
Injected packet rate average = 0.000125
	minimum = 0 (at node 0)
	maximum = 0.002 (at node 2)
Accepted packet rate average = 0.000125
	minimum = 0 (at node 0)
	maximum = 0.002 (at node 3)
Injected flit rate average = 0.000125
	minimum = 0 (at node 0)
	maximum = 0.002 (at node 2)
Accepted flit rate average= 0.000125
	minimum = 0 (at node 0)
	maximum = 0.002 (at node 3)
Injected packet length average = 1
Accepted packet length average = 1
Total in-flight flits = 0 (0 measured)
Class 2:
Packet latency average = 17
	minimum = 17
	maximum = 17
Network latency average = 17
	minimum = 17
	maximum = 17
Slowest packet = 553409
Flit latency average = 17
	minimum = 17
	maximum = 17
Slowest flit = 553409
Fragmentation average = 0
	minimum = 0
	maximum = 0
Injected packet rate average = 0.000125
	minimum = 0 (at node 0)
	maximum = 0.002 (at node 3)
Accepted packet rate average = 0.000125
	minimum = 0 (at node 0)
	maximum = 0.002 (at node 1)
Injected flit rate average = 0.000125
	minimum = 0 (at node 0)
	maximum = 0.002 (at node 3)
Accepted flit rate average= 0.000125
	minimum = 0 (at node 0)
	maximum = 0.002 (at node 1)
Injected packet length average = 1
Accepted packet length average = 1
Total in-flight flits = 0 (0 measured)
Class 3:
Packet latency average = 13
	minimum = 13
	maximum = 13
Network latency average = 12
	minimum = 12
	maximum = 12
Slowest packet = 553410
Flit latency average = 12
	minimum = 12
	maximum = 12
Slowest flit = 553410
Fragmentation average = 0
	minimum = 0
	maximum = 0
Injected packet rate average = 0.000125
	minimum = 0 (at node 0)
	maximum = 0.002 (at node 3)
Accepted packet rate average = 0.000125
	minimum = 0 (at node 0)
	maximum = 0.002 (at node 2)
Injected flit rate average = 0.000125
	minimum = 0 (at node 0)
	maximum = 0.002 (at node 3)
Accepted flit rate average= 0.000125
	minimum = 0 (at node 0)
	maximum = 0.002 (at node 2)
Injected packet length average = 1
Accepted packet length average = 1
Total in-flight flits = 0 (0 measured)
Class 4:
Packet latency average = 12.0154
	minimum = 12
	maximum = 14
Network latency average = 12
	minimum = 12
	maximum = 12
Slowest packet = 553521
Flit latency average = 12
	minimum = 12
	maximum = 12
Slowest flit = 553521
Fragmentation average = 0
	minimum = 0
	maximum = 0
Injected packet rate average = 0.000244125
	minimum = 0 (at node 0)
	maximum = 0.003906 (at node 3)
Accepted packet rate average = 0.000244125
	minimum = 0 (at node 0)
	maximum = 0.003906 (at node 7)
Injected flit rate average = 0.000244125
	minimum = 0 (at node 0)
	maximum = 0.003906 (at node 3)
Accepted flit rate average= 0.000244125
	minimum = 0 (at node 0)
	maximum = 0.003906 (at node 7)
Injected packet length average = 1
Accepted packet length average = 1
Total in-flight flits = 0 (0 measured)
Class 5:
Packet latency average = 20
	minimum = 20
	maximum = 20
Network latency average = 17
	minimum = 17
	maximum = 17
Slowest packet = 553401
Flit latency average = 17
	minimum = 17
	maximum = 17
Slowest flit = 553401
Fragmentation average = 0
	minimum = 0
	maximum = 0
Injected packet rate average = 0.00390625
	minimum = 0 (at node 0)
	maximum = 0.0625 (at node 4)
Accepted packet rate average = 0.00390625
	minimum = 0 (at node 0)
	maximum = 0.0625 (at node 1)
Injected flit rate average = 0.00390625
	minimum = 0 (at node 0)
	maximum = 0.0625 (at node 4)
Accepted flit rate average= 0.00390625
	minimum = 0 (at node 0)
	maximum = 0.0625 (at node 1)
Injected packet length average = 1
Accepted packet length average = 1
Total in-flight flits = 1 (0 measured)
Class 6:
Packet latency average = 26
	minimum = 26
	maximum = 26
Network latency average = 22
	minimum = 22
	maximum = 22
Slowest packet = 553402
Flit latency average = 22
	minimum = 22
	maximum = 22
Slowest flit = 553402
Fragmentation average = 0
	minimum = 0
	maximum = 0
Injected packet rate average = 0.00390625
	minimum = 0 (at node 0)
	maximum = 0.0625 (at node 4)
Accepted packet rate average = 0.00390625
	minimum = 0 (at node 0)
	maximum = 0.0625 (at node 2)
Injected flit rate average = 0.00390625
	minimum = 0 (at node 0)
	maximum = 0.0625 (at node 4)
Accepted flit rate average= 0.00390625
	minimum = 0 (at node 0)
	maximum = 0.0625 (at node 2)
Injected packet length average = 1
Accepted packet length average = 1
Total in-flight flits = 1 (0 measured)
Class 7:
Packet latency average = 17
	minimum = 17
	maximum = 17
Network latency average = 12
	minimum = 12
	maximum = 12
Slowest packet = 553403
Flit latency average = 12
	minimum = 12
	maximum = 12
Slowest flit = 553403
Fragmentation average = 0
	minimum = 0
	maximum = 0
Injected packet rate average = 0.00390625
	minimum = 0 (at node 0)
	maximum = 0.0625 (at node 4)
Accepted packet rate average = 0.00390625
	minimum = 0 (at node 0)
	maximum = 0.0625 (at node 5)
Injected flit rate average = 0.00390625
	minimum = 0 (at node 0)
	maximum = 0.0625 (at node 4)
Accepted flit rate average= 0.00390625
	minimum = 0 (at node 0)
	maximum = 0.0625 (at node 5)
Injected packet length average = 1
Accepted packet length average = 1
Total in-flight flits = 1 (0 measured)
Class 8:
Packet latency average = 12
	minimum = 12
	maximum = 12
Network latency average = 12
	minimum = 12
	maximum = 12
Slowest packet = 553414
Flit latency average = 12
	minimum = 12
	maximum = 12
Slowest flit = 553414
Fragmentation average = 0
	minimum = 0
	maximum = 0
Injected packet rate average = 0.00390625
	minimum = 0 (at node 0)
	maximum = 0.0625 (at node 4)
Accepted packet rate average = 0.00390625
	minimum = 0 (at node 0)
	maximum = 0.0625 (at node 8)
Injected flit rate average = 0.00390625
	minimum = 0 (at node 0)
	maximum = 0.0625 (at node 4)
Accepted flit rate average= 0.00390625
	minimum = 0 (at node 0)
	maximum = 0.0625 (at node 8)
Injected packet length average = 1
Accepted packet length average = 1
Total in-flight flits = 0 (0 measured)
Class 9:
Packet latency average = 18
	minimum = 18
	maximum = 18
Network latency average = 17
	minimum = 17
	maximum = 17
Slowest packet = 553405
Flit latency average = 17
	minimum = 17
	maximum = 17
Slowest flit = 553405
Fragmentation average = 0
	minimum = 0
	maximum = 0
Injected packet rate average = 0.00390625
	minimum = 0 (at node 0)
	maximum = 0.0625 (at node 4)
Accepted packet rate average = 0.00390625
	minimum = 0 (at node 0)
	maximum = 0.0625 (at node 9)
Injected flit rate average = 0.00390625
	minimum = 0 (at node 0)
	maximum = 0.0625 (at node 4)
Accepted flit rate average= 0.00390625
	minimum = 0 (at node 0)
	maximum = 0.0625 (at node 9)
Injected packet length average = 1
Accepted packet length average = 1
Total in-flight flits = 1 (0 measured)
Class 10:
Packet latency average = 24.0001
	minimum = 24
	maximum = 25
Network latency average = 22.0001
	minimum = 22
	maximum = 23
Slowest packet = 553406
Flit latency average = 22.0001
	minimum = 22
	maximum = 23
Slowest flit = 585026
Fragmentation average = 0
	minimum = 0
	maximum = 0
Injected packet rate average = 0.00390625
	minimum = 0 (at node 0)
	maximum = 0.0625 (at node 4)
Accepted packet rate average = 0.00390625
	minimum = 0 (at node 0)
	maximum = 0.0625 (at node 10)
Injected flit rate average = 0.00390625
	minimum = 0 (at node 0)
	maximum = 0.0625 (at node 4)
Accepted flit rate average= 0.00390625
	minimum = 0 (at node 0)
	maximum = 0.0625 (at node 10)
Injected packet length average = 1
Accepted packet length average = 1
Total in-flight flits = 1 (0 measured)
Class 11:
Packet latency average = 12.1263
	minimum = 12
	maximum = 13
Network latency average = 12.1263
	minimum = 12
	maximum = 13
Slowest packet = 553619
Flit latency average = 12.1263
	minimum = 12
	maximum = 13
Slowest flit = 553619
Fragmentation average = 0
	minimum = 0
	maximum = 0
Injected packet rate average = 0.0005
	minimum = 0 (at node 0)
	maximum = 0.008 (at node 5)
Accepted packet rate average = 0.0005
	minimum = 0 (at node 0)
	maximum = 0.008 (at node 6)
Injected flit rate average = 0.0005
	minimum = 0 (at node 0)
	maximum = 0.008 (at node 5)
Accepted flit rate average= 0.0005
	minimum = 0 (at node 0)
	maximum = 0.008 (at node 6)
Injected packet length average = 1
Accepted packet length average = 1
Total in-flight flits = 0 (0 measured)
Class 12:
Packet latency average = 13.0625
	minimum = 13
	maximum = 14
Network latency average = 12.0625
	minimum = 12
	maximum = 13
Slowest packet = 553418
Flit latency average = 12.0625
	minimum = 12
	maximum = 13
Slowest flit = 553694
Fragmentation average = 0
	minimum = 0
	maximum = 0
Injected packet rate average = 0.0005
	minimum = 0 (at node 0)
	maximum = 0.008 (at node 6)
Accepted packet rate average = 0.0005
	minimum = 0 (at node 0)
	maximum = 0.008 (at node 5)
Injected flit rate average = 0.0005
	minimum = 0 (at node 0)
	maximum = 0.008 (at node 6)
Accepted flit rate average= 0.0005
	minimum = 0 (at node 0)
	maximum = 0.008 (at node 5)
Injected packet length average = 1
Accepted packet length average = 1
Total in-flight flits = 0 (0 measured)
Class 13:
Packet latency average = 22.001
	minimum = 22
	maximum = 24
Network latency average = 22.001
	minimum = 22
	maximum = 24
Slowest packet = 752089
Flit latency average = 22.001
	minimum = 22
	maximum = 24
Slowest flit = 752089
Fragmentation average = 0
	minimum = 0
	maximum = 0
Injected packet rate average = 0.0005
	minimum = 0 (at node 0)
	maximum = 0.008 (at node 6)
Accepted packet rate average = 0.0005
	minimum = 0 (at node 0)
	maximum = 0.008 (at node 15)
Injected flit rate average = 0.0005
	minimum = 0 (at node 0)
	maximum = 0.008 (at node 6)
Accepted flit rate average= 0.0005
	minimum = 0 (at node 0)
	maximum = 0.008 (at node 15)
Injected packet length average = 1
Accepted packet length average = 1
Total in-flight flits = 0 (0 measured)
Class 14:
Packet latency average = 12
	minimum = 12
	maximum = 12
Network latency average = 12
	minimum = 12
	maximum = 12
Slowest packet = 553420
Flit latency average = 12
	minimum = 12
	maximum = 12
Slowest flit = 553420
Fragmentation average = 0
	minimum = 0
	maximum = 0
Injected packet rate average = 0.0005
	minimum = 0 (at node 0)
	maximum = 0.008 (at node 8)
Accepted packet rate average = 0.0005
	minimum = 0 (at node 0)
	maximum = 0.008 (at node 12)
Injected flit rate average = 0.0005
	minimum = 0 (at node 0)
	maximum = 0.008 (at node 8)
Accepted flit rate average= 0.0005
	minimum = 0 (at node 0)
	maximum = 0.008 (at node 12)
Injected packet length average = 1
Accepted packet length average = 1
Total in-flight flits = 0 (0 measured)
Class 15:
Packet latency average = 12
	minimum = 12
	maximum = 12
Network latency average = 12
	minimum = 12
	maximum = 12
Slowest packet = 553421
Flit latency average = 12
	minimum = 12
	maximum = 12
Slowest flit = 553421
Fragmentation average = 0
	minimum = 0
	maximum = 0
Injected packet rate average = 0.0005
	minimum = 0 (at node 0)
	maximum = 0.008 (at node 9)
Accepted packet rate average = 0.0005
	minimum = 0 (at node 0)
	maximum = 0.008 (at node 13)
Injected flit rate average = 0.0005
	minimum = 0 (at node 0)
	maximum = 0.008 (at node 9)
Accepted flit rate average= 0.0005
	minimum = 0 (at node 0)
	maximum = 0.008 (at node 13)
Injected packet length average = 1
Accepted packet length average = 1
Total in-flight flits = 0 (0 measured)
Class 16:
Packet latency average = 12
	minimum = 12
	maximum = 12
Network latency average = 12
	minimum = 12
	maximum = 12
Slowest packet = 553422
Flit latency average = 12
	minimum = 12
	maximum = 12
Slowest flit = 553422
Fragmentation average = 0
	minimum = 0
	maximum = 0
Injected packet rate average = 0.0005
	minimum = 0 (at node 0)
	maximum = 0.008 (at node 10)
Accepted packet rate average = 0.0005
	minimum = 0 (at node 0)
	maximum = 0.008 (at node 14)
Injected flit rate average = 0.0005
	minimum = 0 (at node 0)
	maximum = 0.008 (at node 10)
Accepted flit rate average= 0.0005
	minimum = 0 (at node 0)
	maximum = 0.008 (at node 14)
Injected packet length average = 1
Accepted packet length average = 1
Total in-flight flits = 0 (0 measured)
Class 17:
Packet latency average = 12.033
	minimum = 12
	maximum = 13
Network latency average = 12.0017
	minimum = 12
	maximum = 13
Slowest packet = 553423
Flit latency average = 12.0017
	minimum = 12
	maximum = 13
Slowest flit = 554114
Fragmentation average = 0
	minimum = 0
	maximum = 0
Injected packet rate average = 0.0005
	minimum = 0 (at node 0)
	maximum = 0.008 (at node 11)
Accepted packet rate average = 0.0005
	minimum = 0 (at node 0)
	maximum = 0.008 (at node 7)
Injected flit rate average = 0.0005
	minimum = 0 (at node 0)
	maximum = 0.008 (at node 11)
Accepted flit rate average= 0.0005
	minimum = 0 (at node 0)
	maximum = 0.008 (at node 7)
Injected packet length average = 1
Accepted packet length average = 1
Total in-flight flits = 0 (0 measured)
Class 18:
Packet latency average = 12.0404
	minimum = 12
	maximum = 14
Network latency average = 12.0404
	minimum = 12
	maximum = 14
Slowest packet = 554401
Flit latency average = 12.0404
	minimum = 12
	maximum = 14
Slowest flit = 554401
Fragmentation average = 0
	minimum = 0
	maximum = 0
Injected packet rate average = 0.00195312
	minimum = 0 (at node 0)
	maximum = 0.03125 (at node 11)
Accepted packet rate average = 0.00195312
	minimum = 0 (at node 0)
	maximum = 0.03125 (at node 15)
Injected flit rate average = 0.00195312
	minimum = 0 (at node 0)
	maximum = 0.03125 (at node 11)
Accepted flit rate average= 0.00195312
	minimum = 0 (at node 0)
	maximum = 0.03125 (at node 15)
Injected packet length average = 1
Accepted packet length average = 1
Total in-flight flits = 0 (0 measured)
Class 19:
Packet latency average = 12.0625
	minimum = 12
	maximum = 13
Network latency average = 12.0625
	minimum = 12
	maximum = 13
Slowest packet = 553425
Flit latency average = 12.0625
	minimum = 12
	maximum = 13
Slowest flit = 553425
Fragmentation average = 0
	minimum = 0
	maximum = 0
Injected packet rate average = 0.0005
	minimum = 0 (at node 0)
	maximum = 0.008 (at node 12)
Accepted packet rate average = 0.0005
	minimum = 0 (at node 0)
	maximum = 0.008 (at node 8)
Injected flit rate average = 0.0005
	minimum = 0 (at node 0)
	maximum = 0.008 (at node 12)
Accepted flit rate average= 0.0005
	minimum = 0 (at node 0)
	maximum = 0.008 (at node 8)
Injected packet length average = 1
Accepted packet length average = 1
Total in-flight flits = 0 (0 measured)
Class 20:
Packet latency average = 23
	minimum = 23
	maximum = 23
Network latency average = 22
	minimum = 22
	maximum = 22
Slowest packet = 553426
Flit latency average = 22
	minimum = 22
	maximum = 22
Slowest flit = 553426
Fragmentation average = 0
	minimum = 0
	maximum = 0
Injected packet rate average = 0.0005
	minimum = 0 (at node 0)
	maximum = 0.008 (at node 12)
Accepted packet rate average = 0.0005
	minimum = 0 (at node 0)
	maximum = 0.008 (at node 15)
Injected flit rate average = 0.0005
	minimum = 0 (at node 0)
	maximum = 0.008 (at node 12)
Accepted flit rate average= 0.0005
	minimum = 0 (at node 0)
	maximum = 0.008 (at node 15)
Injected packet length average = 1
Accepted packet length average = 1
Total in-flight flits = 0 (0 measured)
Class 21:
Packet latency average = 12.0625
	minimum = 12
	maximum = 13
Network latency average = 12.0625
	minimum = 12
	maximum = 13
Slowest packet = 554391
Flit latency average = 12.0625
	minimum = 12
	maximum = 13
Slowest flit = 554391
Fragmentation average = 0
	minimum = 0
	maximum = 0
Injected packet rate average = 0.0005
	minimum = 0 (at node 0)
	maximum = 0.008 (at node 13)
Accepted packet rate average = 0.0005
	minimum = 0 (at node 0)
	maximum = 0.008 (at node 9)
Injected flit rate average = 0.0005
	minimum = 0 (at node 0)
	maximum = 0.008 (at node 13)
Accepted flit rate average= 0.0005
	minimum = 0 (at node 0)
	maximum = 0.008 (at node 9)
Injected packet length average = 1
Accepted packet length average = 1
Total in-flight flits = 0 (0 measured)
Class 22:
Packet latency average = 18
	minimum = 18
	maximum = 18
Network latency average = 17
	minimum = 17
	maximum = 17
Slowest packet = 553428
Flit latency average = 17
	minimum = 17
	maximum = 17
Slowest flit = 553428
Fragmentation average = 0
	minimum = 0
	maximum = 0
Injected packet rate average = 0.0005
	minimum = 0 (at node 0)
	maximum = 0.008 (at node 13)
Accepted packet rate average = 0.0005
	minimum = 0 (at node 0)
	maximum = 0.008 (at node 15)
Injected flit rate average = 0.0005
	minimum = 0 (at node 0)
	maximum = 0.008 (at node 13)
Accepted flit rate average= 0.0005
	minimum = 0 (at node 0)
	maximum = 0.008 (at node 15)
Injected packet length average = 1
Accepted packet length average = 1
Total in-flight flits = 0 (0 measured)
Class 23:
Packet latency average = 12.0625
	minimum = 12
	maximum = 13
Network latency average = 12.0625
	minimum = 12
	maximum = 13
Slowest packet = 554254
Flit latency average = 12.0625
	minimum = 12
	maximum = 13
Slowest flit = 554254
Fragmentation average = 0
	minimum = 0
	maximum = 0
Injected packet rate average = 0.0005
	minimum = 0 (at node 0)
	maximum = 0.008 (at node 14)
Accepted packet rate average = 0.0005
	minimum = 0 (at node 0)
	maximum = 0.008 (at node 10)
Injected flit rate average = 0.0005
	minimum = 0 (at node 0)
	maximum = 0.008 (at node 14)
Accepted flit rate average= 0.0005
	minimum = 0 (at node 0)
	maximum = 0.008 (at node 10)
Injected packet length average = 1
Accepted packet length average = 1
Total in-flight flits = 0 (0 measured)
Class 24:
Packet latency average = 13
	minimum = 13
	maximum = 13
Network latency average = 12
	minimum = 12
	maximum = 12
Slowest packet = 553430
Flit latency average = 12
	minimum = 12
	maximum = 12
Slowest flit = 553430
Fragmentation average = 0
	minimum = 0
	maximum = 0
Injected packet rate average = 0.0005
	minimum = 0 (at node 0)
	maximum = 0.008 (at node 14)
Accepted packet rate average = 0.0005
	minimum = 0 (at node 0)
	maximum = 0.008 (at node 15)
Injected flit rate average = 0.0005
	minimum = 0 (at node 0)
	maximum = 0.008 (at node 14)
Accepted flit rate average= 0.0005
	minimum = 0 (at node 0)
	maximum = 0.008 (at node 15)
Injected packet length average = 1
Accepted packet length average = 1
Total in-flight flits = 0 (0 measured)
Class 25:
Packet latency average = 12
	minimum = 12
	maximum = 12
Network latency average = 12
	minimum = 12
	maximum = 12
Slowest packet = 553431
Flit latency average = 12
	minimum = 12
	maximum = 12
Slowest flit = 553431
Fragmentation average = 0
	minimum = 0
	maximum = 0
Injected packet rate average = 0.00195312
	minimum = 0 (at node 0)
	maximum = 0.03125 (at node 15)
Accepted packet rate average = 0.00195312
	minimum = 0 (at node 0)
	maximum = 0.03125 (at node 11)
Injected flit rate average = 0.00195312
	minimum = 0 (at node 0)
	maximum = 0.03125 (at node 15)
Accepted flit rate average= 0.00195312
	minimum = 0 (at node 0)
	maximum = 0.03125 (at node 11)
Injected packet length average = 1
Accepted packet length average = 1
Total in-flight flits = 0 (0 measured)
latency change    = 0
throughput change = 0
latency change    = 0
throughput change = 0
latency change    = 0
throughput change = 0
latency change    = 0
throughput change = 0
latency change    = 8.48807e-05
throughput change = 0.000256016
latency change    = 1.60003e-06
throughput change = 1.6e-05
latency change    = 3.50775e-05
throughput change = 1.6e-05
latency change    = 1.88238e-06
throughput change = 1.6e-05
latency change    = 0
throughput change = 0
latency change    = 0
throughput change = 1.6e-05
latency change    = 1.33343e-06
throughput change = 1.6e-05
latency change    = 2.06164e-05
throughput change = 0
latency change    = 0
throughput change = 0
latency change    = 0
throughput change = 0
latency change    = 0
throughput change = 0
latency change    = 0
throughput change = 0
latency change    = 0
throughput change = 0
latency change    = 2.07762e-05
throughput change = 0
latency change    = 1.59463e-05
throughput change = 0
latency change    = 0
throughput change = 0
latency change    = 0
throughput change = 0
latency change    = 0
throughput change = 0
latency change    = 0
throughput change = 0
latency change    = 0
throughput change = 0
latency change    = 0
throughput change = 0
latency change    = 0
throughput change = 0
Warmed up ...Time used is 1500000 cycles
Class 0:
Packet latency average = 17
	minimum = 17
	maximum = 17
Network latency average = 17
	minimum = 17
	maximum = 17
Slowest packet = 830110
Flit latency average = 17
	minimum = 17
	maximum = 17
Slowest flit = 830110
Fragmentation average = 0
	minimum = 0
	maximum = 0
Injected packet rate average = 0.000125
	minimum = 0 (at node 0)
	maximum = 0.002 (at node 1)
Accepted packet rate average = 0.000125
	minimum = 0 (at node 0)
	maximum = 0.002 (at node 3)
Injected flit rate average = 0.000125
	minimum = 0 (at node 0)
	maximum = 0.002 (at node 1)
Accepted flit rate average= 0.000125
	minimum = 0 (at node 0)
	maximum = 0.002 (at node 3)
Injected packet length average = 1
Accepted packet length average = 1
Total in-flight flits = 0 (0 measured)
Class 1:
Packet latency average = 12
	minimum = 12
	maximum = 12
Network latency average = 12
	minimum = 12
	maximum = 12
Slowest packet = 830111
Flit latency average = 12
	minimum = 12
	maximum = 12
Slowest flit = 830111
Fragmentation average = 0
	minimum = 0
	maximum = 0
Injected packet rate average = 0.000125
	minimum = 0 (at node 0)
	maximum = 0.002 (at node 2)
Accepted packet rate average = 0.000125
	minimum = 0 (at node 0)
	maximum = 0.002 (at node 3)
Injected flit rate average = 0.000125
	minimum = 0 (at node 0)
	maximum = 0.002 (at node 2)
Accepted flit rate average= 0.000125
	minimum = 0 (at node 0)
	maximum = 0.002 (at node 3)
Injected packet length average = 1
Accepted packet length average = 1
Total in-flight flits = 0 (0 measured)
Class 2:
Packet latency average = 17
	minimum = 17
	maximum = 17
Network latency average = 17
	minimum = 17
	maximum = 17
Slowest packet = 830112
Flit latency average = 17
	minimum = 17
	maximum = 17
Slowest flit = 830112
Fragmentation average = 0
	minimum = 0
	maximum = 0
Injected packet rate average = 0.000125
	minimum = 0 (at node 0)
	maximum = 0.002 (at node 3)
Accepted packet rate average = 0.000125
	minimum = 0 (at node 0)
	maximum = 0.002 (at node 1)
Injected flit rate average = 0.000125
	minimum = 0 (at node 0)
	maximum = 0.002 (at node 3)
Accepted flit rate average= 0.000125
	minimum = 0 (at node 0)
	maximum = 0.002 (at node 1)
Injected packet length average = 1
Accepted packet length average = 1
Total in-flight flits = 0 (0 measured)
Class 3:
Packet latency average = 13
	minimum = 13
	maximum = 13
Network latency average = 12
	minimum = 12
	maximum = 12
Slowest packet = 830113
Flit latency average = 12
	minimum = 12
	maximum = 12
Slowest flit = 830113
Fragmentation average = 0
	minimum = 0
	maximum = 0
Injected packet rate average = 0.000125
	minimum = 0 (at node 0)
	maximum = 0.002 (at node 3)
Accepted packet rate average = 0.000125
	minimum = 0 (at node 0)
	maximum = 0.002 (at node 2)
Injected flit rate average = 0.000125
	minimum = 0 (at node 0)
	maximum = 0.002 (at node 3)
Accepted flit rate average= 0.000125
	minimum = 0 (at node 0)
	maximum = 0.002 (at node 2)
Injected packet length average = 1
Accepted packet length average = 1
Total in-flight flits = 0 (0 measured)
Class 4:
Packet latency average = 12.0179
	minimum = 12
	maximum = 16
Network latency average = 12.0015
	minimum = 12
	maximum = 14
Slowest packet = 830210
Flit latency average = 12.0015
	minimum = 12
	maximum = 14
Slowest flit = 1044835
Fragmentation average = 0
	minimum = 0
	maximum = 0
Injected packet rate average = 0.000244125
	minimum = 0 (at node 0)
	maximum = 0.003906 (at node 3)
Accepted packet rate average = 0.000244125
	minimum = 0 (at node 0)
	maximum = 0.003906 (at node 7)
Injected flit rate average = 0.000244125
	minimum = 0 (at node 0)
	maximum = 0.003906 (at node 3)
Accepted flit rate average= 0.000244125
	minimum = 0 (at node 0)
	maximum = 0.003906 (at node 7)
Injected packet length average = 1
Accepted packet length average = 1
Total in-flight flits = 0 (0 measured)
Class 5:
Packet latency average = 20
	minimum = 20
	maximum = 20
Network latency average = 17
	minimum = 17
	maximum = 17
Slowest packet = 830114
Flit latency average = 17
	minimum = 17
	maximum = 17
Slowest flit = 830104
Fragmentation average = 0
	minimum = 0
	maximum = 0
Injected packet rate average = 0.00390625
	minimum = 0 (at node 0)
	maximum = 0.0625 (at node 4)
Accepted packet rate average = 0.00390625
	minimum = 0 (at node 0)
	maximum = 0.0625 (at node 1)
Injected flit rate average = 0.00390625
	minimum = 0 (at node 0)
	maximum = 0.0625 (at node 4)
Accepted flit rate average= 0.00390625
	minimum = 0 (at node 0)
	maximum = 0.0625 (at node 1)
Injected packet length average = 1
Accepted packet length average = 1
Total in-flight flits = 1 (1 measured)
Class 6:
Packet latency average = 26
	minimum = 26
	maximum = 26
Network latency average = 22
	minimum = 22
	maximum = 22
Slowest packet = 830115
Flit latency average = 22
	minimum = 22
	maximum = 22
Slowest flit = 830105
Fragmentation average = 0
	minimum = 0
	maximum = 0
Injected packet rate average = 0.00390625
	minimum = 0 (at node 0)
	maximum = 0.0625 (at node 4)
Accepted packet rate average = 0.00390625
	minimum = 0 (at node 0)
	maximum = 0.0625 (at node 2)
Injected flit rate average = 0.00390625
	minimum = 0 (at node 0)
	maximum = 0.0625 (at node 4)
Accepted flit rate average= 0.00390625
	minimum = 0 (at node 0)
	maximum = 0.0625 (at node 2)
Injected packet length average = 1
Accepted packet length average = 1
Total in-flight flits = 1 (1 measured)
Class 7:
Packet latency average = 17
	minimum = 17
	maximum = 17
Network latency average = 12
	minimum = 12
	maximum = 12
Slowest packet = 830116
Flit latency average = 12
	minimum = 12
	maximum = 12
Slowest flit = 830106
Fragmentation average = 0
	minimum = 0
	maximum = 0
Injected packet rate average = 0.00390625
	minimum = 0 (at node 0)
	maximum = 0.0625 (at node 4)
Accepted packet rate average = 0.00390625
	minimum = 0 (at node 0)
	maximum = 0.0625 (at node 5)
Injected flit rate average = 0.00390625
	minimum = 0 (at node 0)
	maximum = 0.0625 (at node 4)
Accepted flit rate average= 0.00390625
	minimum = 0 (at node 0)
	maximum = 0.0625 (at node 5)
Injected packet length average = 1
Accepted packet length average = 1
Total in-flight flits = 1 (1 measured)
Class 8:
Packet latency average = 12
	minimum = 12
	maximum = 12
Network latency average = 12
	minimum = 12
	maximum = 12
Slowest packet = 830117
Flit latency average = 12
	minimum = 12
	maximum = 12
Slowest flit = 830117
Fragmentation average = 0
	minimum = 0
	maximum = 0
Injected packet rate average = 0.00390625
	minimum = 0 (at node 0)
	maximum = 0.0625 (at node 4)
Accepted packet rate average = 0.00390625
	minimum = 0 (at node 0)
	maximum = 0.0625 (at node 8)
Injected flit rate average = 0.00390625
	minimum = 0 (at node 0)
	maximum = 0.0625 (at node 4)
Accepted flit rate average= 0.00390625
	minimum = 0 (at node 0)
	maximum = 0.0625 (at node 8)
Injected packet length average = 1
Accepted packet length average = 1
Total in-flight flits = 0 (0 measured)
Class 9:
Packet latency average = 18
	minimum = 18
	maximum = 18
Network latency average = 17
	minimum = 17
	maximum = 17
Slowest packet = 830118
Flit latency average = 17
	minimum = 17
	maximum = 17
Slowest flit = 830108
Fragmentation average = 0
	minimum = 0
	maximum = 0
Injected packet rate average = 0.00390625
	minimum = 0 (at node 0)
	maximum = 0.0625 (at node 4)
Accepted packet rate average = 0.00390625
	minimum = 0 (at node 0)
	maximum = 0.0625 (at node 9)
Injected flit rate average = 0.00390625
	minimum = 0 (at node 0)
	maximum = 0.0625 (at node 4)
Accepted flit rate average= 0.00390625
	minimum = 0 (at node 0)
	maximum = 0.0625 (at node 9)
Injected packet length average = 1
Accepted packet length average = 1
Total in-flight flits = 1 (1 measured)
Class 10:
Packet latency average = 24.0001
	minimum = 24
	maximum = 25
Network latency average = 22.0001
	minimum = 22
	maximum = 23
Slowest packet = 830119
Flit latency average = 22.0001
	minimum = 22
	maximum = 23
Slowest flit = 850661
Fragmentation average = 0
	minimum = 0
	maximum = 0
Injected packet rate average = 0.00390625
	minimum = 0 (at node 0)
	maximum = 0.0625 (at node 4)
Accepted packet rate average = 0.00390625
	minimum = 0 (at node 0)
	maximum = 0.0625 (at node 10)
Injected flit rate average = 0.00390625
	minimum = 0 (at node 0)
	maximum = 0.0625 (at node 4)
Accepted flit rate average= 0.00390625
	minimum = 0 (at node 0)
	maximum = 0.0625 (at node 10)
Injected packet length average = 1
Accepted packet length average = 1
Total in-flight flits = 1 (1 measured)
Class 11:
Packet latency average = 12.1258
	minimum = 12
	maximum = 13
Network latency average = 12.1258
	minimum = 12
	maximum = 13
Slowest packet = 830322
Flit latency average = 12.1258
	minimum = 12
	maximum = 13
Slowest flit = 830322
Fragmentation average = 0
	minimum = 0
	maximum = 0
Injected packet rate average = 0.0005
	minimum = 0 (at node 0)
	maximum = 0.008 (at node 5)
Accepted packet rate average = 0.0005
	minimum = 0 (at node 0)
	maximum = 0.008 (at node 6)
Injected flit rate average = 0.0005
	minimum = 0 (at node 0)
	maximum = 0.008 (at node 5)
Accepted flit rate average= 0.0005
	minimum = 0 (at node 0)
	maximum = 0.008 (at node 6)
Injected packet length average = 1
Accepted packet length average = 1
Total in-flight flits = 0 (0 measured)
Class 12:
Packet latency average = 13.0625
	minimum = 13
	maximum = 14
Network latency average = 12.0625
	minimum = 12
	maximum = 13
Slowest packet = 830121
Flit latency average = 12.0625
	minimum = 12
	maximum = 13
Slowest flit = 830397
Fragmentation average = 0
	minimum = 0
	maximum = 0
Injected packet rate average = 0.0005
	minimum = 0 (at node 0)
	maximum = 0.008 (at node 6)
Accepted packet rate average = 0.0005
	minimum = 0 (at node 0)
	maximum = 0.008 (at node 5)
Injected flit rate average = 0.0005
	minimum = 0 (at node 0)
	maximum = 0.008 (at node 6)
Accepted flit rate average= 0.0005
	minimum = 0 (at node 0)
	maximum = 0.008 (at node 5)
Injected packet length average = 1
Accepted packet length average = 1
Total in-flight flits = 0 (0 measured)
Class 13:
Packet latency average = 22.0005
	minimum = 22
	maximum = 24
Network latency average = 22.0005
	minimum = 22
	maximum = 24
Slowest packet = 1004442
Flit latency average = 22.0005
	minimum = 22
	maximum = 24
Slowest flit = 1004442
Fragmentation average = 0
	minimum = 0
	maximum = 0
Injected packet rate average = 0.0005
	minimum = 0 (at node 0)
	maximum = 0.008 (at node 6)
Accepted packet rate average = 0.0005
	minimum = 0 (at node 0)
	maximum = 0.008 (at node 15)
Injected flit rate average = 0.0005
	minimum = 0 (at node 0)
	maximum = 0.008 (at node 6)
Accepted flit rate average= 0.0005
	minimum = 0 (at node 0)
	maximum = 0.008 (at node 15)
Injected packet length average = 1
Accepted packet length average = 1
Total in-flight flits = 0 (0 measured)
Class 14:
Packet latency average = 12
	minimum = 12
	maximum = 12
Network latency average = 12
	minimum = 12
	maximum = 12
Slowest packet = 830123
Flit latency average = 12
	minimum = 12
	maximum = 12
Slowest flit = 830123
Fragmentation average = 0
	minimum = 0
	maximum = 0
Injected packet rate average = 0.0005
	minimum = 0 (at node 0)
	maximum = 0.008 (at node 8)
Accepted packet rate average = 0.0005
	minimum = 0 (at node 0)
	maximum = 0.008 (at node 12)
Injected flit rate average = 0.0005
	minimum = 0 (at node 0)
	maximum = 0.008 (at node 8)
Accepted flit rate average= 0.0005
	minimum = 0 (at node 0)
	maximum = 0.008 (at node 12)
Injected packet length average = 1
Accepted packet length average = 1
Total in-flight flits = 0 (0 measured)
Class 15:
Packet latency average = 12
	minimum = 12
	maximum = 12
Network latency average = 12
	minimum = 12
	maximum = 12
Slowest packet = 830124
Flit latency average = 12
	minimum = 12
	maximum = 12
Slowest flit = 830124
Fragmentation average = 0
	minimum = 0
	maximum = 0
Injected packet rate average = 0.0005
	minimum = 0 (at node 0)
	maximum = 0.008 (at node 9)
Accepted packet rate average = 0.0005
	minimum = 0 (at node 0)
	maximum = 0.008 (at node 13)
Injected flit rate average = 0.0005
	minimum = 0 (at node 0)
	maximum = 0.008 (at node 9)
Accepted flit rate average= 0.0005
	minimum = 0 (at node 0)
	maximum = 0.008 (at node 13)
Injected packet length average = 1
Accepted packet length average = 1
Total in-flight flits = 0 (0 measured)
Class 16:
Packet latency average = 12
	minimum = 12
	maximum = 12
Network latency average = 12
	minimum = 12
	maximum = 12
Slowest packet = 830125
Flit latency average = 12
	minimum = 12
	maximum = 12
Slowest flit = 830125
Fragmentation average = 0
	minimum = 0
	maximum = 0
Injected packet rate average = 0.0005
	minimum = 0 (at node 0)
	maximum = 0.008 (at node 10)
Accepted packet rate average = 0.0005
	minimum = 0 (at node 0)
	maximum = 0.008 (at node 14)
Injected flit rate average = 0.0005
	minimum = 0 (at node 0)
	maximum = 0.008 (at node 10)
Accepted flit rate average= 0.0005
	minimum = 0 (at node 0)
	maximum = 0.008 (at node 14)
Injected packet length average = 1
Accepted packet length average = 1
Total in-flight flits = 0 (0 measured)
Class 17:
Packet latency average = 12.0328
	minimum = 12
	maximum = 13
Network latency average = 12.0015
	minimum = 12
	maximum = 13
Slowest packet = 830126
Flit latency average = 12.0015
	minimum = 12
	maximum = 13
Slowest flit = 864021
Fragmentation average = 0
	minimum = 0
	maximum = 0
Injected packet rate average = 0.0005
	minimum = 0 (at node 0)
	maximum = 0.008 (at node 11)
Accepted packet rate average = 0.0005
	minimum = 0 (at node 0)
	maximum = 0.008 (at node 7)
Injected flit rate average = 0.0005
	minimum = 0 (at node 0)
	maximum = 0.008 (at node 11)
Accepted flit rate average= 0.0005
	minimum = 0 (at node 0)
	maximum = 0.008 (at node 7)
Injected packet length average = 1
Accepted packet length average = 1
Total in-flight flits = 0 (0 measured)
Class 18:
Packet latency average = 12.0406
	minimum = 12
	maximum = 14
Network latency average = 12.0406
	minimum = 12
	maximum = 14
Slowest packet = 831104
Flit latency average = 12.0406
	minimum = 12
	maximum = 14
Slowest flit = 831104
Fragmentation average = 0
	minimum = 0
	maximum = 0
Injected packet rate average = 0.00195312
	minimum = 0 (at node 0)
	maximum = 0.03125 (at node 11)
Accepted packet rate average = 0.00195312
	minimum = 0 (at node 0)
	maximum = 0.03125 (at node 15)
Injected flit rate average = 0.00195312
	minimum = 0 (at node 0)
	maximum = 0.03125 (at node 11)
Accepted flit rate average= 0.00195312
	minimum = 0 (at node 0)
	maximum = 0.03125 (at node 15)
Injected packet length average = 1
Accepted packet length average = 1
Total in-flight flits = 0 (0 measured)
Class 19:
Packet latency average = 12.0625
	minimum = 12
	maximum = 13
Network latency average = 12.0625
	minimum = 12
	maximum = 13
Slowest packet = 830128
Flit latency average = 12.0625
	minimum = 12
	maximum = 13
Slowest flit = 830128
Fragmentation average = 0
[...]
Accepted flit rate average = 0.000244125 (1 samples)
	minimum = 0 (1 samples)
	maximum = 0.003906 (1 samples)
Injected packet size average = 1 (1 samples)
Accepted packet size average = 1 (1 samples)
Hops average = 2 (1 samples)
====== Traffic class 5 ======
Packet latency average = 20 (1 samples)
	minimum = 20 (1 samples)
	maximum = 20 (1 samples)
Network latency average = 17 (1 samples)
	minimum = 17 (1 samples)
	maximum = 17 (1 samples)
Flit latency average = 17 (1 samples)
	minimum = 17 (1 samples)
	maximum = 17 (1 samples)
Fragmentation average = 0 (1 samples)
	minimum = 0 (1 samples)
	maximum = 0 (1 samples)
Injected packet rate average = 0.00390625 (1 samples)
	minimum = 0 (1 samples)
	maximum = 0.0625 (1 samples)
Accepted packet rate average = 0.00390625 (1 samples)
	minimum = 0 (1 samples)
	maximum = 0.0625 (1 samples)
Injected flit rate average = 0.00390625 (1 samples)
	minimum = 0 (1 samples)
	maximum = 0.0625 (1 samples)
Accepted flit rate average = 0.00390625 (1 samples)
	minimum = 0 (1 samples)
	maximum = 0.0625 (1 samples)
Injected packet size average = 1 (1 samples)
Accepted packet size average = 1 (1 samples)
Hops average = 3 (1 samples)
====== Traffic class 6 ======
Packet latency average = 26 (1 samples)
	minimum = 26 (1 samples)
	maximum = 26 (1 samples)
Network latency average = 22 (1 samples)
	minimum = 22 (1 samples)
	maximum = 22 (1 samples)
Flit latency average = 22 (1 samples)
	minimum = 22 (1 samples)
	maximum = 22 (1 samples)
Fragmentation average = 0 (1 samples)
	minimum = 0 (1 samples)
	maximum = 0 (1 samples)
Injected packet rate average = 0.00390625 (1 samples)
	minimum = 0 (1 samples)
	maximum = 0.0625 (1 samples)
Accepted packet rate average = 0.00390625 (1 samples)
	minimum = 0 (1 samples)
	maximum = 0.0625 (1 samples)
Injected flit rate average = 0.00390625 (1 samples)
	minimum = 0 (1 samples)
	maximum = 0.0625 (1 samples)
Accepted flit rate average = 0.00390625 (1 samples)
	minimum = 0 (1 samples)
	maximum = 0.0625 (1 samples)
Injected packet size average = 1 (1 samples)
Accepted packet size average = 1 (1 samples)
Hops average = 4 (1 samples)
====== Traffic class 7 ======
Packet latency average = 17 (1 samples)
	minimum = 17 (1 samples)
	maximum = 17 (1 samples)
Network latency average = 12 (1 samples)
	minimum = 12 (1 samples)
	maximum = 12 (1 samples)
Flit latency average = 12 (1 samples)
	minimum = 12 (1 samples)
	maximum = 12 (1 samples)
Fragmentation average = 0 (1 samples)
	minimum = 0 (1 samples)
	maximum = 0 (1 samples)
Injected packet rate average = 0.00390625 (1 samples)
	minimum = 0 (1 samples)
	maximum = 0.0625 (1 samples)
Accepted packet rate average = 0.00390625 (1 samples)
	minimum = 0 (1 samples)
	maximum = 0.0625 (1 samples)
Injected flit rate average = 0.00390625 (1 samples)
	minimum = 0 (1 samples)
	maximum = 0.0625 (1 samples)
Accepted flit rate average = 0.00390625 (1 samples)
	minimum = 0 (1 samples)
	maximum = 0.0625 (1 samples)
Injected packet size average = 1 (1 samples)
Accepted packet size average = 1 (1 samples)
Hops average = 2 (1 samples)
====== Traffic class 8 ======
Packet latency average = 12 (1 samples)
	minimum = 12 (1 samples)
	maximum = 12 (1 samples)
Network latency average = 12 (1 samples)
	minimum = 12 (1 samples)
	maximum = 12 (1 samples)
Flit latency average = 12 (1 samples)
	minimum = 12 (1 samples)
	maximum = 12 (1 samples)
Fragmentation average = 0 (1 samples)
	minimum = 0 (1 samples)
	maximum = 0 (1 samples)
Injected packet rate average = 0.00390625 (1 samples)
	minimum = 0 (1 samples)
	maximum = 0.0625 (1 samples)
Accepted packet rate average = 0.00390625 (1 samples)
	minimum = 0 (1 samples)
	maximum = 0.0625 (1 samples)
Injected flit rate average = 0.00390625 (1 samples)
	minimum = 0 (1 samples)
	maximum = 0.0625 (1 samples)
Accepted flit rate average = 0.00390625 (1 samples)
	minimum = 0 (1 samples)
	maximum = 0.0625 (1 samples)
Injected packet size average = 1 (1 samples)
Accepted packet size average = 1 (1 samples)
Hops average = 2 (1 samples)
====== Traffic class 9 ======
Packet latency average = 18 (1 samples)
	minimum = 18 (1 samples)
	maximum = 18 (1 samples)
Network latency average = 17 (1 samples)
	minimum = 17 (1 samples)
	maximum = 17 (1 samples)
Flit latency average = 17 (1 samples)
	minimum = 17 (1 samples)
	maximum = 17 (1 samples)
Fragmentation average = 0 (1 samples)
	minimum = 0 (1 samples)
	maximum = 0 (1 samples)
Injected packet rate average = 0.00390625 (1 samples)
	minimum = 0 (1 samples)
	maximum = 0.0625 (1 samples)
Accepted packet rate average = 0.00390625 (1 samples)
	minimum = 0 (1 samples)
	maximum = 0.0625 (1 samples)
Injected flit rate average = 0.00390625 (1 samples)
	minimum = 0 (1 samples)
	maximum = 0.0625 (1 samples)
Accepted flit rate average = 0.00390625 (1 samples)
	minimum = 0 (1 samples)
	maximum = 0.0625 (1 samples)
Injected packet size average = 1 (1 samples)
Accepted packet size average = 1 (1 samples)
Hops average = 3 (1 samples)
====== Traffic class 10 ======
Packet latency average = 24.0001 (1 samples)
	minimum = 24 (1 samples)
	maximum = 25 (1 samples)
Network latency average = 22.0001 (1 samples)
	minimum = 22 (1 samples)
	maximum = 23 (1 samples)
Flit latency average = 22.0001 (1 samples)
	minimum = 22 (1 samples)
	maximum = 23 (1 samples)
Fragmentation average = 0 (1 samples)
	minimum = 0 (1 samples)
	maximum = 0 (1 samples)
Injected packet rate average = 0.00390625 (1 samples)
	minimum = 0 (1 samples)
	maximum = 0.0625 (1 samples)
Accepted packet rate average = 0.00390625 (1 samples)
	minimum = 0 (1 samples)
	maximum = 0.0625 (1 samples)
Injected flit rate average = 0.00390625 (1 samples)
	minimum = 0 (1 samples)
	maximum = 0.0625 (1 samples)
Accepted flit rate average = 0.00390625 (1 samples)
	minimum = 0 (1 samples)
	maximum = 0.0625 (1 samples)
Injected packet size average = 1 (1 samples)
Accepted packet size average = 1 (1 samples)
Hops average = 4 (1 samples)
====== Traffic class 11 ======
Packet latency average = 12.1259 (1 samples)
	minimum = 12 (1 samples)
	maximum = 13 (1 samples)
Network latency average = 12.1259 (1 samples)
	minimum = 12 (1 samples)
	maximum = 13 (1 samples)
Flit latency average = 12.1259 (1 samples)
	minimum = 12 (1 samples)
	maximum = 13 (1 samples)
Fragmentation average = 0 (1 samples)
	minimum = 0 (1 samples)
	maximum = 0 (1 samples)
Injected packet rate average = 0.0005 (1 samples)
	minimum = 0 (1 samples)
	maximum = 0.008 (1 samples)
Accepted packet rate average = 0.0005 (1 samples)
	minimum = 0 (1 samples)
	maximum = 0.008 (1 samples)
Injected flit rate average = 0.0005 (1 samples)
	minimum = 0 (1 samples)
	maximum = 0.008 (1 samples)
Accepted flit rate average = 0.0005 (1 samples)
	minimum = 0 (1 samples)
	maximum = 0.008 (1 samples)
Injected packet size average = 1 (1 samples)
Accepted packet size average = 1 (1 samples)
Hops average = 2 (1 samples)
====== Traffic class 12 ======
Packet latency average = 13.0625 (1 samples)
	minimum = 13 (1 samples)
	maximum = 14 (1 samples)
Network latency average = 12.0625 (1 samples)
	minimum = 12 (1 samples)
	maximum = 13 (1 samples)
Flit latency average = 12.0625 (1 samples)
	minimum = 12 (1 samples)
	maximum = 13 (1 samples)
Fragmentation average = 0 (1 samples)
	minimum = 0 (1 samples)
	maximum = 0 (1 samples)
Injected packet rate average = 0.0005 (1 samples)
	minimum = 0 (1 samples)
	maximum = 0.008 (1 samples)
Accepted packet rate average = 0.0005 (1 samples)
	minimum = 0 (1 samples)
	maximum = 0.008 (1 samples)
Injected flit rate average = 0.0005 (1 samples)
	minimum = 0 (1 samples)
	maximum = 0.008 (1 samples)
Accepted flit rate average = 0.0005 (1 samples)
	minimum = 0 (1 samples)
	maximum = 0.008 (1 samples)
Injected packet size average = 1 (1 samples)
Accepted packet size average = 1 (1 samples)
Hops average = 2 (1 samples)
====== Traffic class 13 ======
Packet latency average = 22.0012 (1 samples)
	minimum = 22 (1 samples)
	maximum = 24 (1 samples)
Network latency average = 22.0012 (1 samples)
	minimum = 22 (1 samples)
	maximum = 24 (1 samples)
Flit latency average = 22.0012 (1 samples)
	minimum = 22 (1 samples)
	maximum = 24 (1 samples)
Fragmentation average = 0 (1 samples)
	minimum = 0 (1 samples)
	maximum = 0 (1 samples)
Injected packet rate average = 0.0005 (1 samples)
	minimum = 0 (1 samples)
	maximum = 0.008 (1 samples)
Accepted packet rate average = 0.0005 (1 samples)
	minimum = 0 (1 samples)
	maximum = 0.008 (1 samples)
Injected flit rate average = 0.0005 (1 samples)
	minimum = 0 (1 samples)
	maximum = 0.008 (1 samples)
Accepted flit rate average = 0.0005 (1 samples)
	minimum = 0 (1 samples)
	maximum = 0.008 (1 samples)
Injected packet size average = 1 (1 samples)
Accepted packet size average = 1 (1 samples)
Hops average = 4 (1 samples)
====== Traffic class 14 ======
Packet latency average = 12 (1 samples)
	minimum = 12 (1 samples)
	maximum = 12 (1 samples)
Network latency average = 12 (1 samples)
	minimum = 12 (1 samples)
	maximum = 12 (1 samples)
Flit latency average = 12 (1 samples)
	minimum = 12 (1 samples)
	maximum = 12 (1 samples)
Fragmentation average = 0 (1 samples)
	minimum = 0 (1 samples)
	maximum = 0 (1 samples)
Injected packet rate average = 0.0005 (1 samples)
	minimum = 0 (1 samples)
	maximum = 0.008 (1 samples)
Accepted packet rate average = 0.0005 (1 samples)
	minimum = 0 (1 samples)
	maximum = 0.008 (1 samples)
Injected flit rate average = 0.0005 (1 samples)
	minimum = 0 (1 samples)
	maximum = 0.008 (1 samples)
Accepted flit rate average = 0.0005 (1 samples)
	minimum = 0 (1 samples)
	maximum = 0.008 (1 samples)
Injected packet size average = 1 (1 samples)
Accepted packet size average = 1 (1 samples)
Hops average = 2 (1 samples)
====== Traffic class 15 ======
Packet latency average = 12 (1 samples)
	minimum = 12 (1 samples)
	maximum = 12 (1 samples)
Network latency average = 12 (1 samples)
	minimum = 12 (1 samples)
	maximum = 12 (1 samples)
Flit latency average = 12 (1 samples)
	minimum = 12 (1 samples)
	maximum = 12 (1 samples)
Fragmentation average = 0 (1 samples)
	minimum = 0 (1 samples)
	maximum = 0 (1 samples)
Injected packet rate average = 0.0005 (1 samples)
	minimum = 0 (1 samples)
	maximum = 0.008 (1 samples)
Accepted packet rate average = 0.0005 (1 samples)
	minimum = 0 (1 samples)
	maximum = 0.008 (1 samples)
Injected flit rate average = 0.0005 (1 samples)
	minimum = 0 (1 samples)
	maximum = 0.008 (1 samples)
Accepted flit rate average = 0.0005 (1 samples)
	minimum = 0 (1 samples)
	maximum = 0.008 (1 samples)
Injected packet size average = 1 (1 samples)
Accepted packet size average = 1 (1 samples)
Hops average = 2 (1 samples)
====== Traffic class 16 ======
Packet latency average = 12 (1 samples)
	minimum = 12 (1 samples)
	maximum = 12 (1 samples)
Network latency average = 12 (1 samples)
	minimum = 12 (1 samples)
	maximum = 12 (1 samples)
Flit latency average = 12 (1 samples)
	minimum = 12 (1 samples)
	maximum = 12 (1 samples)
Fragmentation average = 0 (1 samples)
	minimum = 0 (1 samples)
	maximum = 0 (1 samples)
Injected packet rate average = 0.0005 (1 samples)
	minimum = 0 (1 samples)
	maximum = 0.008 (1 samples)
Accepted packet rate average = 0.0005 (1 samples)
	minimum = 0 (1 samples)
	maximum = 0.008 (1 samples)
Injected flit rate average = 0.0005 (1 samples)
	minimum = 0 (1 samples)
	maximum = 0.008 (1 samples)
Accepted flit rate average = 0.0005 (1 samples)
	minimum = 0 (1 samples)
	maximum = 0.008 (1 samples)
Injected packet size average = 1 (1 samples)
Accepted packet size average = 1 (1 samples)
Hops average = 2 (1 samples)
====== Traffic class 17 ======
Packet latency average = 12.0328 (1 samples)
	minimum = 12 (1 samples)
	maximum = 13 (1 samples)
Network latency average = 12.0015 (1 samples)
	minimum = 12 (1 samples)
	maximum = 13 (1 samples)
Flit latency average = 12.0015 (1 samples)
	minimum = 12 (1 samples)
	maximum = 13 (1 samples)
Fragmentation average = 0 (1 samples)
	minimum = 0 (1 samples)
	maximum = 0 (1 samples)
Injected packet rate average = 0.0005 (1 samples)
	minimum = 0 (1 samples)
	maximum = 0.008 (1 samples)
Accepted packet rate average = 0.0005 (1 samples)
	minimum = 0 (1 samples)
	maximum = 0.008 (1 samples)
Injected flit rate average = 0.0005 (1 samples)
	minimum = 0 (1 samples)
	maximum = 0.008 (1 samples)
Accepted flit rate average = 0.0005 (1 samples)
	minimum = 0 (1 samples)
	maximum = 0.008 (1 samples)
Injected packet size average = 1 (1 samples)
Accepted packet size average = 1 (1 samples)
Hops average = 2 (1 samples)
====== Traffic class 18 ======
Packet latency average = 12.0405 (1 samples)
	minimum = 12 (1 samples)
	maximum = 14 (1 samples)
Network latency average = 12.0405 (1 samples)
	minimum = 12 (1 samples)
	maximum = 14 (1 samples)
Flit latency average = 12.0405 (1 samples)
	minimum = 12 (1 samples)
	maximum = 14 (1 samples)
Fragmentation average = 0 (1 samples)
	minimum = 0 (1 samples)
	maximum = 0 (1 samples)
Injected packet rate average = 0.00195312 (1 samples)
	minimum = 0 (1 samples)
	maximum = 0.03125 (1 samples)
Accepted packet rate average = 0.00195312 (1 samples)
	minimum = 0 (1 samples)
	maximum = 0.03125 (1 samples)
Injected flit rate average = 0.00195312 (1 samples)
	minimum = 0 (1 samples)
	maximum = 0.03125 (1 samples)
Accepted flit rate average = 0.00195312 (1 samples)
	minimum = 0 (1 samples)
	maximum = 0.03125 (1 samples)
Injected packet size average = 1 (1 samples)
Accepted packet size average = 1 (1 samples)
Hops average = 2 (1 samples)
====== Traffic class 19 ======
Packet latency average = 12.0625 (1 samples)
	minimum = 12 (1 samples)
	maximum = 13 (1 samples)
Network latency average = 12.0625 (1 samples)
	minimum = 12 (1 samples)
	maximum = 13 (1 samples)
Flit latency average = 12.0626 (1 samples)
	minimum = 12 (1 samples)
	maximum = 13 (1 samples)
Fragmentation average = 0 (1 samples)
	minimum = 0 (1 samples)
	maximum = 0 (1 samples)
Injected packet rate average = 0.0005 (1 samples)
	minimum = 0 (1 samples)
	maximum = 0.008 (1 samples)
Accepted packet rate average = 0.0005 (1 samples)
	minimum = 0 (1 samples)
	maximum = 0.008 (1 samples)
Injected flit rate average = 0.0005 (1 samples)
	minimum = 0 (1 samples)
	maximum = 0.008 (1 samples)
Accepted flit rate average = 0.0005 (1 samples)
	minimum = 0 (1 samples)
	maximum = 0.008 (1 samples)
Injected packet size average = 1 (1 samples)
Accepted packet size average = 1 (1 samples)
Hops average = 2 (1 samples)
====== Traffic class 20 ======
Packet latency average = 23 (1 samples)
	minimum = 23 (1 samples)
	maximum = 23 (1 samples)
Network latency average = 22 (1 samples)
	minimum = 22 (1 samples)
	maximum = 22 (1 samples)
Flit latency average = 22 (1 samples)
	minimum = 22 (1 samples)
	maximum = 22 (1 samples)
Fragmentation average = 0 (1 samples)
	minimum = 0 (1 samples)
	maximum = 0 (1 samples)
Injected packet rate average = 0.0005 (1 samples)
	minimum = 0 (1 samples)
	maximum = 0.008 (1 samples)
Accepted packet rate average = 0.0005 (1 samples)
	minimum = 0 (1 samples)
	maximum = 0.008 (1 samples)
Injected flit rate average = 0.0005 (1 samples)
	minimum = 0 (1 samples)
	maximum = 0.008 (1 samples)
Accepted flit rate average = 0.0005 (1 samples)
	minimum = 0 (1 samples)
	maximum = 0.008 (1 samples)
Injected packet size average = 1 (1 samples)
Accepted packet size average = 1 (1 samples)
Hops average = 4 (1 samples)
====== Traffic class 21 ======
Packet latency average = 12.0625 (1 samples)
	minimum = 12 (1 samples)
	maximum = 13 (1 samples)
Network latency average = 12.0625 (1 samples)
	minimum = 12 (1 samples)
	maximum = 13 (1 samples)
Flit latency average = 12.0625 (1 samples)
	minimum = 12 (1 samples)
	maximum = 13 (1 samples)
Fragmentation average = 0 (1 samples)
	minimum = 0 (1 samples)
	maximum = 0 (1 samples)
Injected packet rate average = 0.0005 (1 samples)
	minimum = 0 (1 samples)
	maximum = 0.008 (1 samples)
Accepted packet rate average = 0.0005 (1 samples)
	minimum = 0 (1 samples)
	maximum = 0.008 (1 samples)
Injected flit rate average = 0.0005 (1 samples)
	minimum = 0 (1 samples)
	maximum = 0.008 (1 samples)
Accepted flit rate average = 0.0005 (1 samples)
	minimum = 0 (1 samples)
	maximum = 0.008 (1 samples)
Injected packet size average = 1 (1 samples)
Accepted packet size average = 1 (1 samples)
Hops average = 2 (1 samples)
====== Traffic class 22 ======
Packet latency average = 18 (1 samples)
	minimum = 18 (1 samples)
	maximum = 18 (1 samples)
Network latency average = 17 (1 samples)
	minimum = 17 (1 samples)
	maximum = 17 (1 samples)
Flit latency average = 17 (1 samples)
	minimum = 17 (1 samples)
	maximum = 17 (1 samples)
Fragmentation average = 0 (1 samples)
	minimum = 0 (1 samples)
	maximum = 0 (1 samples)
Injected packet rate average = 0.0005 (1 samples)
	minimum = 0 (1 samples)
	maximum = 0.008 (1 samples)
Accepted packet rate average = 0.0005 (1 samples)
	minimum = 0 (1 samples)
	maximum = 0.008 (1 samples)
Injected flit rate average = 0.0005 (1 samples)
	minimum = 0 (1 samples)
	maximum = 0.008 (1 samples)
Accepted flit rate average = 0.0005 (1 samples)
	minimum = 0 (1 samples)
	maximum = 0.008 (1 samples)
Injected packet size average = 1 (1 samples)
Accepted packet size average = 1 (1 samples)
Hops average = 3 (1 samples)
====== Traffic class 23 ======
Packet latency average = 12.0625 (1 samples)
	minimum = 12 (1 samples)
	maximum = 13 (1 samples)
Network latency average = 12.0625 (1 samples)
	minimum = 12 (1 samples)
	maximum = 13 (1 samples)
Flit latency average = 12.0625 (1 samples)
	minimum = 12 (1 samples)
	maximum = 13 (1 samples)
Fragmentation average = 0 (1 samples)
	minimum = 0 (1 samples)
	maximum = 0 (1 samples)
Injected packet rate average = 0.0005 (1 samples)
	minimum = 0 (1 samples)
	maximum = 0.008 (1 samples)
Accepted packet rate average = 0.0005 (1 samples)
	minimum = 0 (1 samples)
	maximum = 0.008 (1 samples)
Injected flit rate average = 0.0005 (1 samples)
	minimum = 0 (1 samples)
	maximum = 0.008 (1 samples)
Accepted flit rate average = 0.0005 (1 samples)
	minimum = 0 (1 samples)
	maximum = 0.008 (1 samples)
Injected packet size average = 1 (1 samples)
Accepted packet size average = 1 (1 samples)
Hops average = 2 (1 samples)
====== Traffic class 24 ======
Packet latency average = 13 (1 samples)
	minimum = 13 (1 samples)
	maximum = 13 (1 samples)
Network latency average = 12 (1 samples)
	minimum = 12 (1 samples)
	maximum = 12 (1 samples)
Flit latency average = 12 (1 samples)
	minimum = 12 (1 samples)
	maximum = 12 (1 samples)
Fragmentation average = 0 (1 samples)
	minimum = 0 (1 samples)
	maximum = 0 (1 samples)
Injected packet rate average = 0.0005 (1 samples)
	minimum = 0 (1 samples)
	maximum = 0.008 (1 samples)
Accepted packet rate average = 0.0005 (1 samples)
	minimum = 0 (1 samples)
	maximum = 0.008 (1 samples)
Injected flit rate average = 0.0005 (1 samples)
	minimum = 0 (1 samples)
	maximum = 0.008 (1 samples)
Accepted flit rate average = 0.0005 (1 samples)
	minimum = 0 (1 samples)
	maximum = 0.008 (1 samples)
Injected packet size average = 1 (1 samples)
Accepted packet size average = 1 (1 samples)
Hops average = 2 (1 samples)
====== Traffic class 25 ======
Packet latency average = 12 (1 samples)
	minimum = 12 (1 samples)
	maximum = 12 (1 samples)
Network latency average = 12 (1 samples)
	minimum = 12 (1 samples)
	maximum = 12 (1 samples)
Flit latency average = 12 (1 samples)
	minimum = 12 (1 samples)
	maximum = 12 (1 samples)
Fragmentation average = 0 (1 samples)
	minimum = 0 (1 samples)
	maximum = 0 (1 samples)
Injected packet rate average = 0.00195312 (1 samples)
	minimum = 0 (1 samples)
	maximum = 0.03125 (1 samples)
Accepted packet rate average = 0.00195312 (1 samples)
	minimum = 0 (1 samples)
	maximum = 0.03125 (1 samples)
Injected flit rate average = 0.00195312 (1 samples)
	minimum = 0 (1 samples)
	maximum = 0.03125 (1 samples)
Accepted flit rate average = 0.00195312 (1 samples)
	minimum = 0 (1 samples)
	maximum = 0.03125 (1 samples)
Injected packet size average = 1 (1 samples)
Accepted packet size average = 1 (1 samples)
Hops average = 2 (1 samples)
Total run time 1234.04
