BEGIN Configuration File: examples/ericsson
// Topology
topology = mesh;
k = 4;
n = 2;

// Routing
routing_function = dor;

// Flow control
num_vcs     	= 60;
vc_buf_size 	= 16;

wait_for_tail_credit = 0;

// Router architecture
vc_allocator 	 = separable_input_first;
sw_allocator 	 = separable_input_first;
//arb_type	 = prio_arb;
credit_delay   	 = 1;
routing_delay  	 = 1;
vc_alloc_delay 	 = 1;
sw_alloc_delay	 = 1;
st_final_delay 	 = 1;
input_speedup    = 1;
output_speedup   = 1;
internal_speedup = 1.0;

// Traffic
traffic          = {customizedpattern,customizedpattern,customizedpattern,customizedpattern,customizedpattern,customizedpattern,customizedpattern,customizedpattern,customizedpattern,customizedpattern,customizedpattern,customizedpattern,customizedpattern,customizedpattern,customizedpattern,customizedpattern,customizedpattern,customizedpattern,customizedpattern,customizedpattern,customizedpattern,customizedpattern,customizedpattern,customizedpattern,customizedpattern,customizedpattern,customizedpattern};

injection_process= {customizedinjectionprocess,customizedinjectionprocess,customizedinjectionprocess,customizedinjectionprocess,customizedinjectionprocess,customizedinjectionprocess,customizedinjectionprocess,customizedinjectionprocess,customizedinjectionprocess,customizedinjectionprocess,customizedinjectionprocess,customizedinjectionprocess,customizedinjectionprocess,customizedinjectionprocess,customizedinjectionprocess,customizedinjectionprocess,customizedinjectionprocess,customizedinjectionprocess,customizedinjectionprocess,customizedinjectionprocess,customizedinjectionprocess,customizedinjectionprocess,customizedinjectionprocess,customizedinjectionprocess,customizedinjectionprocess};

packet_size  	 = 1;
priority	 = class;
classes 	 = 26;
class_priority   = {4,4,4,4,3,2,2,2,9,9,9,1,1,7,8,8,8,5,6,8,7,8,7,8,7,6};
	
sample_period  	 = 1000000; 

warmup_periods   = 3;

// Simulation
sim_type       	 = latency;
//print_activity   = 1;

//injection rate here is packet per cycle, NOT flit per cycle
injection_rate 	 = {0.002,0.002,0.002,0.002,0.001,0.064,0.064,0.064,0.064,0.064,0.064,0.008,0.008,0.008,0.008,0.008,0.008,0.008,0.032,0.008,0.008,0.008,0.008,0.008,0.008,0.008,0.032};

watch_file	 = ./watchpacket.txt;

watch_out	 =-;

END Configuration File: examples/ericsson
Class 0:
Packet latency average = 17
	minimum = 17
	maximum = 17
Network latency average = 17
	minimum = 17
	maximum = 17
Slowest packet = 0
Flit latency average = 17
	minimum = 17
	maximum = 17
Slowest flit = 0
Fragmentation average = 0
	minimum = 0
	maximum = 0
Injected packet rate average = 0.000125
	minimum = 0 (at node 0)
	maximum = 0.002 (at node 1)
Accepted packet rate average = 0.000125
	minimum = 0 (at node 0)
	maximum = 0.002 (at node 3)
Injected flit rate average = 0.000125
	minimum = 0 (at node 0)
	maximum = 0.002 (at node 1)
Accepted flit rate average= 0.000125
	minimum = 0 (at node 0)
	maximum = 0.002 (at node 3)
Injected packet length average = 1
Accepted packet length average = 1
Total in-flight flits = 0 (0 measured)
Class 1:
Packet latency average = 12
	minimum = 12
	maximum = 12
Network latency average = 12
	minimum = 12
	maximum = 12
Slowest packet = 1
Flit latency average = 12
	minimum = 12
	maximum = 12
Slowest flit = 1
Fragmentation average = 0
	minimum = 0
	maximum = 0
Injected packet rate average = 0.000125
	minimum = 0 (at node 0)
	maximum = 0.002 (at node 2)
Accepted packet rate average = 0.000125
	minimum = 0 (at node 0)
	maximum = 0.002 (at node 3)
Injected flit rate average = 0.000125
	minimum = 0 (at node 0)
	maximum = 0.002 (at node 2)
Accepted flit rate average= 0.000125
	minimum = 0 (at node 0)
	maximum = 0.002 (at node 3)
Injected packet length average = 1
Accepted packet length average = 1
Total in-flight flits = 0 (0 measured)
Class 2:
Packet latency average = 17
	minimum = 17
	maximum = 17
Network latency average = 17
	minimum = 17
	maximum = 17
Slowest packet = 2
Flit latency average = 17
	minimum = 17
	maximum = 17
Slowest flit = 2
Fragmentation average = 0
	minimum = 0
	maximum = 0
Injected packet rate average = 0.000125
	minimum = 0 (at node 0)
	maximum = 0.002 (at node 3)
Accepted packet rate average = 0.000125
	minimum = 0 (at node 0)
	maximum = 0.002 (at node 1)
Injected flit rate average = 0.000125
	minimum = 0 (at node 0)
	maximum = 0.002 (at node 3)
Accepted flit rate average= 0.000125
	minimum = 0 (at node 0)
	maximum = 0.002 (at node 1)
Injected packet length average = 1
Accepted packet length average = 1
Total in-flight flits = 0 (0 measured)
Class 3:
Packet latency average = 13
	minimum = 13
	maximum = 13
Network latency average = 12
	minimum = 12
	maximum = 12
Slowest packet = 3
Flit latency average = 12
	minimum = 12
	maximum = 12
Slowest flit = 3
Fragmentation average = 0
	minimum = 0
	maximum = 0
Injected packet rate average = 0.000125
	minimum = 0 (at node 0)
	maximum = 0.002 (at node 3)
Accepted packet rate average = 0.000125
	minimum = 0 (at node 0)
	maximum = 0.002 (at node 2)
Injected flit rate average = 0.000125
	minimum = 0 (at node 0)
	maximum = 0.002 (at node 3)
Accepted flit rate average= 0.000125
	minimum = 0 (at node 0)
	maximum = 0.002 (at node 2)
Injected packet length average = 1
Accepted packet length average = 1
Total in-flight flits = 0 (0 measured)
Class 4:
Packet latency average = 14.051
	minimum = 14
	maximum = 16
Network latency average = 12.051
	minimum = 12
	maximum = 14
Slowest packet = 4
Flit latency average = 12.051
	minimum = 12
	maximum = 14
Slowest flit = 559
Fragmentation average = 0
	minimum = 0
	maximum = 0
Injected packet rate average = 6.25e-05
	minimum = 0 (at node 0)
	maximum = 0.001 (at node 3)
Accepted packet rate average = 6.25e-05
	minimum = 0 (at node 0)
	maximum = 0.001 (at node 7)
Injected flit rate average = 6.25e-05
	minimum = 0 (at node 0)
	maximum = 0.001 (at node 3)
Accepted flit rate average= 6.25e-05
	minimum = 0 (at node 0)
	maximum = 0.001 (at node 7)
Injected packet length average = 1
Accepted packet length average = 1
Total in-flight flits = 0 (0 measured)
Class 5:
Packet latency average = 20
	minimum = 20
	maximum = 21
Network latency average = 17
	minimum = 17
	maximum = 18
Slowest packet = 5
Flit latency average = 17
	minimum = 17
	maximum = 18
Slowest flit = 5
Fragmentation average = 0
	minimum = 0
	maximum = 0
Injected packet rate average = 0.00390625
	minimum = 0 (at node 0)
	maximum = 0.0625 (at node 4)
Accepted packet rate average = 0.00390619
	minimum = 0 (at node 0)
	maximum = 0.062499 (at node 1)
Injected flit rate average = 0.00390625
	minimum = 0 (at node 0)
	maximum = 0.0625 (at node 4)
Accepted flit rate average= 0.00390619
	minimum = 0 (at node 0)
	maximum = 0.062499 (at node 1)
Injected packet length average = 1
Accepted packet length average = 1
Total in-flight flits = 1 (0 measured)
Class 6:
Packet latency average = 26.0009
	minimum = 26
	maximum = 28
Network latency average = 22.0009
	minimum = 22
	maximum = 24
Slowest packet = 6
Flit latency average = 22.0009
	minimum = 22
	maximum = 24
Slowest flit = 27
Fragmentation average = 0
	minimum = 0
	maximum = 0
Injected packet rate average = 0.00390625
	minimum = 0 (at node 0)
	maximum = 0.0625 (at node 4)
Accepted packet rate average = 0.00390619
	minimum = 0 (at node 0)
	maximum = 0.062499 (at node 2)
Injected flit rate average = 0.00390625
	minimum = 0 (at node 0)
	maximum = 0.0625 (at node 4)
Accepted flit rate average= 0.00390619
	minimum = 0 (at node 0)
	maximum = 0.062499 (at node 2)
Injected packet length average = 1
Accepted packet length average = 1
Total in-flight flits = 1 (0 measured)
Class 7:
Packet latency average = 17
	minimum = 17
	maximum = 19
Network latency average = 12
	minimum = 12
	maximum = 14
Slowest packet = 7
Flit latency average = 12
	minimum = 12
	maximum = 14
Slowest flit = 7
Fragmentation average = 0
	minimum = 0
	maximum = 0
Injected packet rate average = 0.00390625
	minimum = 0 (at node 0)
	maximum = 0.0625 (at node 4)
Accepted packet rate average = 0.00390619
	minimum = 0 (at node 0)
	maximum = 0.062499 (at node 5)
Injected flit rate average = 0.00390625
	minimum = 0 (at node 0)
	maximum = 0.0625 (at node 4)
Accepted flit rate average= 0.00390619
	minimum = 0 (at node 0)
	maximum = 0.062499 (at node 5)
Injected packet length average = 1
Accepted packet length average = 1
Total in-flight flits = 1 (0 measured)
Class 8:
Packet latency average = 12
	minimum = 12
	maximum = 12
Network latency average = 12
	minimum = 12
	maximum = 12
Slowest packet = 8
Flit latency average = 12
	minimum = 12
	maximum = 12
Slowest flit = 8
Fragmentation average = 0
	minimum = 0
	maximum = 0
Injected packet rate average = 0.00390625
	minimum = 0 (at node 0)
	maximum = 0.0625 (at node 4)
Accepted packet rate average = 0.00390625
	minimum = 0 (at node 0)
	maximum = 0.0625 (at node 8)
Injected flit rate average = 0.00390625
	minimum = 0 (at node 0)
	maximum = 0.0625 (at node 4)
Accepted flit rate average= 0.00390625
	minimum = 0 (at node 0)
	maximum = 0.0625 (at node 8)
Injected packet length average = 1
Accepted packet length average = 1
Total in-flight flits = 0 (0 measured)
Class 9:
Packet latency average = 18
	minimum = 18
	maximum = 18
Network latency average = 17
	minimum = 17
	maximum = 17
Slowest packet = 9
Flit latency average = 17
	minimum = 17
	maximum = 17
Slowest flit = 9
Fragmentation average = 0
	minimum = 0
	maximum = 0
Injected packet rate average = 0.00390625
	minimum = 0 (at node 0)
	maximum = 0.0625 (at node 4)
Accepted packet rate average = 0.00390619
	minimum = 0 (at node 0)
	maximum = 0.062499 (at node 9)
Injected flit rate average = 0.00390625
	minimum = 0 (at node 0)
	maximum = 0.0625 (at node 4)
Accepted flit rate average= 0.00390619
	minimum = 0 (at node 0)
	maximum = 0.062499 (at node 9)
Injected packet length average = 1
Accepted packet length average = 1
Total in-flight flits = 1 (0 measured)
Class 10:
Packet latency average = 24.0002
	minimum = 24
	maximum = 25
Network latency average = 22.0002
	minimum = 22
	maximum = 23
Slowest packet = 10
Flit latency average = 22.0002
	minimum = 22
	maximum = 23
Slowest flit = 11636
Fragmentation average = 0
	minimum = 0
	maximum = 0
Injected packet rate average = 0.00390625
	minimum = 0 (at node 0)
	maximum = 0.0625 (at node 4)
Accepted packet rate average = 0.00390619
	minimum = 0 (at node 0)
	maximum = 0.062499 (at node 10)
Injected flit rate average = 0.00390625
	minimum = 0 (at node 0)
	maximum = 0.0625 (at node 4)
Accepted flit rate average= 0.00390619
	minimum = 0 (at node 0)
	maximum = 0.062499 (at node 10)
Injected packet length average = 1
Accepted packet length average = 1
Total in-flight flits = 1 (0 measured)
Class 11:
Packet latency average = 12.1265
	minimum = 12
	maximum = 14
Network latency average = 12.1265
	minimum = 12
	maximum = 14
Slowest packet = 486
Flit latency average = 12.1265
	minimum = 12
	maximum = 14
Slowest flit = 486
Fragmentation average = 0
	minimum = 0
	maximum = 0
Injected packet rate average = 0.0005
	minimum = 0 (at node 0)
	maximum = 0.008 (at node 5)
Accepted packet rate average = 0.0005
	minimum = 0 (at node 0)
	maximum = 0.008 (at node 6)
Injected flit rate average = 0.0005
	minimum = 0 (at node 0)
	maximum = 0.008 (at node 5)
Accepted flit rate average= 0.0005
	minimum = 0 (at node 0)
	maximum = 0.008 (at node 6)
Injected packet length average = 1
Accepted packet length average = 1
Total in-flight flits = 0 (0 measured)
Class 12:
Packet latency average = 13.0625
	minimum = 13
	maximum = 14
Network latency average = 12.0625
	minimum = 12
	maximum = 13
Slowest packet = 12
Flit latency average = 12.0625
	minimum = 12
	maximum = 13
Slowest flit = 286
Fragmentation average = 0
	minimum = 0
	maximum = 0
Injected packet rate average = 0.0005
	minimum = 0 (at node 0)
	maximum = 0.008 (at node 6)
Accepted packet rate average = 0.0005
	minimum = 0 (at node 0)
	maximum = 0.008 (at node 5)
Injected flit rate average = 0.0005
	minimum = 0 (at node 0)
	maximum = 0.008 (at node 6)
Accepted flit rate average= 0.0005
	minimum = 0 (at node 0)
	maximum = 0.008 (at node 5)
Injected packet length average = 1
Accepted packet length average = 1
Total in-flight flits = 0 (0 measured)
Class 13:
Packet latency average = 22.001
	minimum = 22
	maximum = 24
Network latency average = 22.001
	minimum = 22
	maximum = 24
Slowest packet = 10470
Flit latency average = 22.001
	minimum = 22
	maximum = 24
Slowest flit = 10470
Fragmentation average = 0
	minimum = 0
	maximum = 0
Injected packet rate average = 0.0005
	minimum = 0 (at node 0)
	maximum = 0.008 (at node 6)
Accepted packet rate average = 0.0005
	minimum = 0 (at node 0)
	maximum = 0.008 (at node 15)
Injected flit rate average = 0.0005
	minimum = 0 (at node 0)
	maximum = 0.008 (at node 6)
Accepted flit rate average= 0.0005
	minimum = 0 (at node 0)
	maximum = 0.008 (at node 15)
Injected packet length average = 1
Accepted packet length average = 1
Total in-flight flits = 0 (0 measured)
Class 14:
Packet latency average = 12
	minimum = 12
	maximum = 12
Network latency average = 12
	minimum = 12
	maximum = 12
Slowest packet = 14
Flit latency average = 12
	minimum = 12
	maximum = 12
Slowest flit = 14
Fragmentation average = 0
	minimum = 0
	maximum = 0
Injected packet rate average = 0.0005
	minimum = 0 (at node 0)
	maximum = 0.008 (at node 8)
Accepted packet rate average = 0.0005
	minimum = 0 (at node 0)
	maximum = 0.008 (at node 12)
Injected flit rate average = 0.0005
	minimum = 0 (at node 0)
	maximum = 0.008 (at node 8)
Accepted flit rate average= 0.0005
	minimum = 0 (at node 0)
	maximum = 0.008 (at node 12)
Injected packet length average = 1
Accepted packet length average = 1
Total in-flight flits = 0 (0 measured)
Class 15:
Packet latency average = 12
	minimum = 12
	maximum = 12
Network latency average = 12
	minimum = 12
	maximum = 12
Slowest packet = 15
Flit latency average = 12
	minimum = 12
	maximum = 12
Slowest flit = 15
Fragmentation average = 0
	minimum = 0
	maximum = 0
Injected packet rate average = 0.0005
	minimum = 0 (at node 0)
	maximum = 0.008 (at node 9)
Accepted packet rate average = 0.0005
	minimum = 0 (at node 0)
	maximum = 0.008 (at node 13)
Injected flit rate average = 0.0005
	minimum = 0 (at node 0)
	maximum = 0.008 (at node 9)
Accepted flit rate average= 0.0005
	minimum = 0 (at node 0)
	maximum = 0.008 (at node 13)
Injected packet length average = 1
Accepted packet length average = 1
Total in-flight flits = 0 (0 measured)
Class 16:
Packet latency average = 12
	minimum = 12
	maximum = 12
Network latency average = 12
	minimum = 12
	maximum = 12
Slowest packet = 16
Flit latency average = 12
	minimum = 12
	maximum = 12
Slowest flit = 16
Fragmentation average = 0
	minimum = 0
	maximum = 0
Injected packet rate average = 0.0005
	minimum = 0 (at node 0)
	maximum = 0.008 (at node 10)
Accepted packet rate average = 0.0005
	minimum = 0 (at node 0)
	maximum = 0.008 (at node 14)
Injected flit rate average = 0.0005
	minimum = 0 (at node 0)
	maximum = 0.008 (at node 10)
Accepted flit rate average= 0.0005
	minimum = 0 (at node 0)
	maximum = 0.008 (at node 14)
Injected packet length average = 1
Accepted packet length average = 1
Total in-flight flits = 0 (0 measured)
Class 17:
Packet latency average = 12.0328
	minimum = 12
	maximum = 13
Network latency average = 12.0015
	minimum = 12
	maximum = 13
Slowest packet = 17
Flit latency average = 12.0015
	minimum = 12
	maximum = 13
Slowest flit = 22724
Fragmentation average = 0
	minimum = 0
	maximum = 0
Injected packet rate average = 0.0005
	minimum = 0 (at node 0)
	maximum = 0.008 (at node 11)
Accepted packet rate average = 0.0005
	minimum = 0 (at node 0)
	maximum = 0.008 (at node 7)
Injected flit rate average = 0.0005
	minimum = 0 (at node 0)
	maximum = 0.008 (at node 11)
Accepted flit rate average= 0.0005
	minimum = 0 (at node 0)
	maximum = 0.008 (at node 7)
Injected packet length average = 1
Accepted packet length average = 1
Total in-flight flits = 0 (0 measured)
Class 18:
Packet latency average = 12.0406
	minimum = 12
	maximum = 14
Network latency average = 12.0406
	minimum = 12
	maximum = 14
Slowest packet = 989
Flit latency average = 12.0406
	minimum = 12
	maximum = 14
Slowest flit = 989
Fragmentation average = 0
	minimum = 0
	maximum = 0
Injected packet rate average = 0.00195312
	minimum = 0 (at node 0)
	maximum = 0.03125 (at node 11)
Accepted packet rate average = 0.00195312
	minimum = 0 (at node 0)
	maximum = 0.03125 (at node 15)
Injected flit rate average = 0.00195312
	minimum = 0 (at node 0)
	maximum = 0.03125 (at node 11)
Accepted flit rate average= 0.00195312
	minimum = 0 (at node 0)
	maximum = 0.03125 (at node 15)
Injected packet length average = 1
Accepted packet length average = 1
Total in-flight flits = 0 (0 measured)
Class 19:
Packet latency average = 12.0625
	minimum = 12
	maximum = 13
Network latency average = 12.0625
	minimum = 12
	maximum = 13
Slowest packet = 19
Flit latency average = 12.0625
	minimum = 12
	maximum = 13
Slowest flit = 19
Fragmentation average = 0
	minimum = 0
	maximum = 0
Injected packet rate average = 0.0005
	minimum = 0 (at node 0)
	maximum = 0.008 (at node 12)
Accepted packet rate average = 0.0005
	minimum = 0 (at node 0)
	maximum = 0.008 (at node 8)
Injected flit rate average = 0.0005
	minimum = 0 (at node 0)
	maximum = 0.008 (at node 12)
Accepted flit rate average= 0.0005
	minimum = 0 (at node 0)
	maximum = 0.008 (at node 8)
Injected packet length average = 1
Accepted packet length average = 1
Total in-flight flits = 0 (0 measured)
Class 20:
Packet latency average = 23
	minimum = 23
	maximum = 23
Network latency average = 22
	minimum = 22
	maximum = 22
Slowest packet = 20
Flit latency average = 22
	minimum = 22
	maximum = 22
Slowest flit = 20
Fragmentation average = 0
	minimum = 0
	maximum = 0
Injected packet rate average = 0.0005
	minimum = 0 (at node 0)
	maximum = 0.008 (at node 12)
Accepted packet rate average = 0.0005
	minimum = 0 (at node 0)
	maximum = 0.008 (at node 15)
Injected flit rate average = 0.0005
	minimum = 0 (at node 0)
	maximum = 0.008 (at node 12)
Accepted flit rate average= 0.0005
	minimum = 0 (at node 0)
	maximum = 0.008 (at node 15)
Injected packet length average = 1
Accepted packet length average = 1
Total in-flight flits = 0 (0 measured)
Class 21:
Packet latency average = 12.0625
	minimum = 12
	maximum = 13
Network latency average = 12.0625
	minimum = 12
	maximum = 13
Slowest packet = 979
Flit latency average = 12.0625
	minimum = 12
	maximum = 13
Slowest flit = 979
Fragmentation average = 0
	minimum = 0
	maximum = 0
Injected packet rate average = 0.0005
	minimum = 0 (at node 0)
	maximum = 0.008 (at node 13)
Accepted packet rate average = 0.0005
	minimum = 0 (at node 0)
	maximum = 0.008 (at node 9)
Injected flit rate average = 0.0005
	minimum = 0 (at node 0)
	maximum = 0.008 (at node 13)
Accepted flit rate average= 0.0005
	minimum = 0 (at node 0)
	maximum = 0.008 (at node 9)
Injected packet length average = 1
Accepted packet length average = 1
Total in-flight flits = 0 (0 measured)
Class 22:
Packet latency average = 18
	minimum = 18
	maximum = 18
Network latency average = 17
	minimum = 17
	maximum = 17
Slowest packet = 22
Flit latency average = 17
	minimum = 17
	maximum = 17
Slowest flit = 22
Fragmentation average = 0
	minimum = 0
	maximum = 0
Injected packet rate average = 0.0005
	minimum = 0 (at node 0)
	maximum = 0.008 (at node 13)
Accepted packet rate average = 0.0005
	minimum = 0 (at node 0)
	maximum = 0.008 (at node 15)
Injected flit rate average = 0.0005
	minimum = 0 (at node 0)
	maximum = 0.008 (at node 13)
Accepted flit rate average= 0.0005
	minimum = 0 (at node 0)
	maximum = 0.008 (at node 15)
Injected packet length average = 1
Accepted packet length average = 1
Total in-flight flits = 0 (0 measured)
Class 23:
Packet latency average = 12.0625
	minimum = 12
	maximum = 13
Network latency average = 12.0625
	minimum = 12
	maximum = 13
Slowest packet = 843
Flit latency average = 12.0625
	minimum = 12
	maximum = 13
Slowest flit = 843
Fragmentation average = 0
	minimum = 0
	maximum = 0
Injected packet rate average = 0.0005
	minimum = 0 (at node 0)
	maximum = 0.008 (at node 14)
Accepted packet rate average = 0.0005
	minimum = 0 (at node 0)
	maximum = 0.008 (at node 10)
Injected flit rate average = 0.0005
	minimum = 0 (at node 0)
	maximum = 0.008 (at node 14)
Accepted flit rate average= 0.0005
	minimum = 0 (at node 0)
	maximum = 0.008 (at node 10)
Injected packet length average = 1
Accepted packet length average = 1
Total in-flight flits = 0 (0 measured)
Class 24:
Packet latency average = 13
	minimum = 13
	maximum = 13
Network latency average = 12
	minimum = 12
	maximum = 12
Slowest packet = 24
Flit latency average = 12
	minimum = 12
	maximum = 12
Slowest flit = 24
Fragmentation average = 0
	minimum = 0
	maximum = 0
Injected packet rate average = 0.0005
	minimum = 0 (at node 0)
	maximum = 0.008 (at node 14)
Accepted packet rate average = 0.0005
	minimum = 0 (at node 0)
	maximum = 0.008 (at node 15)
Injected flit rate average = 0.0005
	minimum = 0 (at node 0)
	maximum = 0.008 (at node 14)
Accepted flit rate average= 0.0005
	minimum = 0 (at node 0)
	maximum = 0.008 (at node 15)
Injected packet length average = 1
Accepted packet length average = 1
Total in-flight flits = 0 (0 measured)
Class 25:
Packet latency average = 12
	minimum = 12
	maximum = 12
Network latency average = 12
	minimum = 12
	maximum = 12
Slowest packet = 25
Flit latency average = 12
	minimum = 12
	maximum = 12
Slowest flit = 25
Fragmentation average = 0
	minimum = 0
	maximum = 0
Injected packet rate average = 0.00195312
	minimum = 0 (at node 0)
	maximum = 0.03125 (at node 15)
Accepted packet rate average = 0.00195312
	minimum = 0 (at node 0)
	maximum = 0.03125 (at node 11)
Injected flit rate average = 0.00195312
	minimum = 0 (at node 0)
	maximum = 0.03125 (at node 15)
Accepted flit rate average= 0.00195312
	minimum = 0 (at node 0)
	maximum = 0.03125 (at node 11)
Injected packet length average = 1
Accepted packet length average = 1
Total in-flight flits = 0 (0 measured)
latency change    = 1
throughput change = 1
latency change    = 1
throughput change = 1
latency change    = 1
throughput change = 1
latency change    = 1
throughput change = 1
latency change    = 1
throughput change = 1
latency change    = 1
throughput change = 1
latency change    = 1
throughput change = 1
latency change    = 1
throughput change = 1
latency change    = 1
throughput change = 1
latency change    = 1
throughput change = 1
latency change    = 1
throughput change = 1
latency change    = 1
throughput change = 1
latency change    = 1
throughput change = 1
latency change    = 1
throughput change = 1
latency change    = 1
throughput change = 1
latency change    = 1
throughput change = 1
latency change    = 1
throughput change = 1
latency change    = 1
throughput change = 1
latency change    = 1
throughput change = 1
latency change    = 1
throughput change = 1
latency change    = 1
throughput change = 1
latency change    = 1
throughput change = 1
latency change    = 1
throughput change = 1
latency change    = 1
throughput change = 1
latency change    = 1
throughput change = 1
latency change    = 1
throughput change = 1
Class 0:
Packet latency average = 17
	minimum = 17
	maximum = 17
Network latency average = 17
	minimum = 17
	maximum = 17
Slowest packet = 0
Flit latency average = 17
	minimum = 17
	maximum = 17
Slowest flit = 0
Fragmentation average = 0
	minimum = 0
	maximum = 0
Injected packet rate average = 0.000125
	minimum = 0 (at node 0)
	maximum = 0.002 (at node 1)
Accepted packet rate average = 0.000125
	minimum = 0 (at node 0)
	maximum = 0.002 (at node 3)
Injected flit rate average = 0.000125
	minimum = 0 (at node 0)
	maximum = 0.002 (at node 1)
Accepted flit rate average= 0.000125
	minimum = 0 (at node 0)
	maximum = 0.002 (at node 3)
Injected packet length average = 1
Accepted packet length average = 1
Total in-flight flits = 0 (0 measured)
Class 1:
Packet latency average = 12
	minimum = 12
	maximum = 12
Network latency average = 12
	minimum = 12
	maximum = 12
Slowest packet = 1
Flit latency average = 12
	minimum = 12
	maximum = 12
Slowest flit = 1
Fragmentation average = 0
	minimum = 0
	maximum = 0
Injected packet rate average = 0.000125
	minimum = 0 (at node 0)
	maximum = 0.002 (at node 2)
Accepted packet rate average = 0.000125
	minimum = 0 (at node 0)
	maximum = 0.002 (at node 3)
Injected flit rate average = 0.000125
	minimum = 0 (at node 0)
	maximum = 0.002 (at node 2)
Accepted flit rate average= 0.000125
	minimum = 0 (at node 0)
	maximum = 0.002 (at node 3)
Injected packet length average = 1
Accepted packet length average = 1
Total in-flight flits = 0 (0 measured)
Class 2:
Packet latency average = 17
	minimum = 17
	maximum = 17
Network latency average = 17
	minimum = 17
	maximum = 17
Slowest packet = 2
Flit latency average = 17
	minimum = 17
	maximum = 17
Slowest flit = 2
Fragmentation average = 0
	minimum = 0
	maximum = 0
Injected packet rate average = 0.000125
	minimum = 0 (at node 0)
	maximum = 0.002 (at node 3)
Accepted packet rate average = 0.000125
	minimum = 0 (at node 0)
	maximum = 0.002 (at node 1)
Injected flit rate average = 0.000125
	minimum = 0 (at node 0)
	maximum = 0.002 (at node 3)
Accepted flit rate average= 0.000125
	minimum = 0 (at node 0)
	maximum = 0.002 (at node 1)
Injected packet length average = 1
Accepted packet length average = 1
Total in-flight flits = 0 (0 measured)
Class 3:
Packet latency average = 13
	minimum = 13
	maximum = 13
Network latency average = 12
	minimum = 12
	maximum = 12
Slowest packet = 3
Flit latency average = 12
	minimum = 12
	maximum = 12
Slowest flit = 3
Fragmentation average = 0
	minimum = 0
	maximum = 0
Injected packet rate average = 0.000125
	minimum = 0 (at node 0)
	maximum = 0.002 (at node 3)
Accepted packet rate average = 0.000125
	minimum = 0 (at node 0)
	maximum = 0.002 (at node 2)
Injected flit rate average = 0.000125
	minimum = 0 (at node 0)
	maximum = 0.002 (at node 3)
Accepted flit rate average= 0.000125
	minimum = 0 (at node 0)
	maximum = 0.002 (at node 2)
Injected packet length average = 1
Accepted packet length average = 1
Total in-flight flits = 0 (0 measured)
Class 4:
Packet latency average = 14.051
	minimum = 14
	maximum = 16
Network latency average = 12.051
	minimum = 12
	maximum = 14
Slowest packet = 4
Flit latency average = 12.051
	minimum = 12
	maximum = 14
Slowest flit = 559
Fragmentation average = 0
	minimum = 0
	maximum = 0
Injected packet rate average = 6.25e-05
	minimum = 0 (at node 0)
	maximum = 0.001 (at node 3)
Accepted packet rate average = 6.25e-05
	minimum = 0 (at node 0)
	maximum = 0.001 (at node 7)
Injected flit rate average = 6.25e-05
	minimum = 0 (at node 0)
	maximum = 0.001 (at node 3)
Accepted flit rate average= 6.25e-05
	minimum = 0 (at node 0)
	maximum = 0.001 (at node 7)
Injected packet length average = 1
Accepted packet length average = 1
Total in-flight flits = 0 (0 measured)
Class 5:
Packet latency average = 20
	minimum = 20
	maximum = 21
Network latency average = 17
	minimum = 17
	maximum = 18
Slowest packet = 5
Flit latency average = 17
	minimum = 17
	maximum = 18
Slowest flit = 5
Fragmentation average = 0
	minimum = 0
	maximum = 0
Injected packet rate average = 0.00390625
	minimum = 0 (at node 0)
	maximum = 0.0625 (at node 4)
Accepted packet rate average = 0.00390622
	minimum = 0 (at node 0)
	maximum = 0.0624995 (at node 1)
Injected flit rate average = 0.00390625
	minimum = 0 (at node 0)
	maximum = 0.0625 (at node 4)
Accepted flit rate average= 0.00390622
	minimum = 0 (at node 0)
	maximum = 0.0624995 (at node 1)
Injected packet length average = 1
Accepted packet length average = 1
Total in-flight flits = 1 (0 measured)
Class 6:
Packet latency average = 26.0005
	minimum = 26
	maximum = 28
Network latency average = 22.0005
	minimum = 22
	maximum = 24
Slowest packet = 6
Flit latency average = 22.0005
	minimum = 22
	maximum = 24
Slowest flit = 27
Fragmentation average = 0
	minimum = 0
	maximum = 0
Injected packet rate average = 0.00390625
	minimum = 0 (at node 0)
	maximum = 0.0625 (at node 4)
Accepted packet rate average = 0.00390622
	minimum = 0 (at node 0)
	maximum = 0.0624995 (at node 2)
Injected flit rate average = 0.00390625
	minimum = 0 (at node 0)
	maximum = 0.0625 (at node 4)
Accepted flit rate average= 0.00390622
	minimum = 0 (at node 0)
	maximum = 0.0624995 (at node 2)
Injected packet length average = 1
Accepted packet length average = 1
Total in-flight flits = 1 (0 measured)
Class 7:
Packet latency average = 17
	minimum = 17
	maximum = 19
Network latency average = 12
	minimum = 12
	maximum = 14
Slowest packet = 7
Flit latency average = 12
	minimum = 12
	maximum = 14
Slowest flit = 7
Fragmentation average = 0
	minimum = 0
	maximum = 0
Injected packet rate average = 0.00390625
	minimum = 0 (at node 0)
	maximum = 0.0625 (at node 4)
Accepted packet rate average = 0.00390622
	minimum = 0 (at node 0)
	maximum = 0.0624995 (at node 5)
Injected flit rate average = 0.00390625
	minimum = 0 (at node 0)
	maximum = 0.0625 (at node 4)
Accepted flit rate average= 0.00390622
	minimum = 0 (at node 0)
	maximum = 0.0624995 (at node 5)
Injected packet length average = 1
Accepted packet length average = 1
Total in-flight flits = 1 (0 measured)
Class 8:
Packet latency average = 12
	minimum = 12
	maximum = 12
Network latency average = 12
	minimum = 12
	maximum = 12
Slowest packet = 8
Flit latency average = 12
	minimum = 12
	maximum = 12
Slowest flit = 8
Fragmentation average = 0
	minimum = 0
	maximum = 0
Injected packet rate average = 0.00390625
	minimum = 0 (at node 0)
	maximum = 0.0625 (at node 4)
Accepted packet rate average = 0.00390625
	minimum = 0 (at node 0)
	maximum = 0.0625 (at node 8)
Injected flit rate average = 0.00390625
	minimum = 0 (at node 0)
	maximum = 0.0625 (at node 4)
Accepted flit rate average= 0.00390625
	minimum = 0 (at node 0)
	maximum = 0.0625 (at node 8)
Injected packet length average = 1
Accepted packet length average = 1
Total in-flight flits = 0 (0 measured)
Class 9:
Packet latency average = 18
	minimum = 18
	maximum = 18
Network latency average = 17
	minimum = 17
	maximum = 17
Slowest packet = 9
Flit latency average = 17
	minimum = 17
	maximum = 17
Slowest flit = 9
Fragmentation average = 0
	minimum = 0
	maximum = 0
Injected packet rate average = 0.00390625
	minimum = 0 (at node 0)
	maximum = 0.0625 (at node 4)
Accepted packet rate average = 0.00390622
	minimum = 0 (at node 0)
	maximum = 0.0624995 (at node 9)
Injected flit rate average = 0.00390625
	minimum = 0 (at node 0)
	maximum = 0.0625 (at node 4)
Accepted flit rate average= 0.00390622
	minimum = 0 (at node 0)
	maximum = 0.0624995 (at node 9)
Injected packet length average = 1
Accepted packet length average = 1
Total in-flight flits = 1 (0 measured)
Class 10:
Packet latency average = 24.0001
	minimum = 24
	maximum = 25
Network latency average = 22.0001
	minimum = 22
	maximum = 23
Slowest packet = 10
Flit latency average = 22.0001
	minimum = 22
	maximum = 23
Slowest flit = 11636
Fragmentation average = 0
	minimum = 0
	maximum = 0
Injected packet rate average = 0.00390625
	minimum = 0 (at node 0)
	maximum = 0.0625 (at node 4)
Accepted packet rate average = 0.00390622
	minimum = 0 (at node 0)
	maximum = 0.0624995 (at node 10)
Injected flit rate average = 0.00390625
	minimum = 0 (at node 0)
	maximum = 0.0625 (at node 4)
Accepted flit rate average= 0.00390622
	minimum = 0 (at node 0)
	maximum = 0.0624995 (at node 10)
Injected packet length average = 1
Accepted packet length average = 1
Total in-flight flits = 1 (0 measured)
Class 11:
Packet latency average = 12.1263
	minimum = 12
	maximum = 14
Network latency average = 12.1263
	minimum = 12
	maximum = 14
Slowest packet = 486
Flit latency average = 12.1263
	minimum = 12
	maximum = 14
Slowest flit = 486
Fragmentation average = 0
	minimum = 0
	maximum = 0
Injected packet rate average = 0.0005
	minimum = 0 (at node 0)
	maximum = 0.008 (at node 5)
Accepted packet rate average = 0.0005
	minimum = 0 (at node 0)
	maximum = 0.008 (at node 6)
Injected flit rate average = 0.0005
	minimum = 0 (at node 0)
	maximum = 0.008 (at node 5)
Accepted flit rate average= 0.0005
	minimum = 0 (at node 0)
	maximum = 0.008 (at node 6)
Injected packet length average = 1
Accepted packet length average = 1
Total in-flight flits = 0 (0 measured)
Class 12:
Packet latency average = 13.0625
	minimum = 13
	maximum = 14
Network latency average = 12.0625
	minimum = 12
	maximum = 13
Slowest packet = 12
Flit latency average = 12.0625
	minimum = 12
	maximum = 13
Slowest flit = 286
Fragmentation average = 0
	minimum = 0
	maximum = 0
Injected packet rate average = 0.0005
	minimum = 0 (at node 0)
	maximum = 0.008 (at node 6)
Accepted packet rate average = 0.0005
	minimum = 0 (at node 0)
	maximum = 0.008 (at node 5)
Injected flit rate average = 0.0005
	minimum = 0 (at node 0)
	maximum = 0.008 (at node 6)
Accepted flit rate average= 0.0005
	minimum = 0 (at node 0)
	maximum = 0.008 (at node 5)
Injected packet length average = 1
Accepted packet length average = 1
Total in-flight flits = 0 (0 measured)
Class 13:
Packet latency average = 22.0009
	minimum = 22
	maximum = 24
Network latency average = 22.0009
	minimum = 22
	maximum = 24
Slowest packet = 10470
Flit latency average = 22.0009
	minimum = 22
	maximum = 24
Slowest flit = 10470
Fragmentation average = 0
	minimum = 0
	maximum = 0
Injected packet rate average = 0.0005
	minimum = 0 (at node 0)
	maximum = 0.008 (at node 6)
Accepted packet rate average = 0.0005
	minimum = 0 (at node 0)
	maximum = 0.008 (at node 15)
Injected flit rate average = 0.0005
	minimum = 0 (at node 0)
	maximum = 0.008 (at node 6)
Accepted flit rate average= 0.0005
	minimum = 0 (at node 0)
	maximum = 0.008 (at node 15)
Injected packet length average = 1
Accepted packet length average = 1
Total in-flight flits = 0 (0 measured)
Class 14:
Packet latency average = 12
	minimum = 12
	maximum = 12
Network latency average = 12
	minimum = 12
	maximum = 12
Slowest packet = 14
Flit latency average = 12
	minimum = 12
	maximum = 12
Slowest flit = 14
Fragmentation average = 0
	minimum = 0
	maximum = 0
Injected packet rate average = 0.0005
	minimum = 0 (at node 0)
	maximum = 0.008 (at node 8)
Accepted packet rate average = 0.0005
	minimum = 0 (at node 0)
	maximum = 0.008 (at node 12)
Injected flit rate average = 0.0005
	minimum = 0 (at node 0)
	maximum = 0.008 (at node 8)
Accepted flit rate average= 0.0005
	minimum = 0 (at node 0)
	maximum = 0.008 (at node 12)
Injected packet length average = 1
Accepted packet length average = 1
Total in-flight flits = 0 (0 measured)
Class 15:
Packet latency average = 12
	minimum = 12
	maximum = 12
Network latency average = 12
	minimum = 12
	maximum = 12
Slowest packet = 15
Flit latency average = 12
	minimum = 12
	maximum = 12
Slowest flit = 15
Fragmentation average = 0
	minimum = 0
	maximum = 0
Injected packet rate average = 0.0005
	minimum = 0 (at node 0)
	maximum = 0.008 (at node 9)
Accepted packet rate average = 0.0005
	minimum = 0 (at node 0)
	maximum = 0.008 (at node 13)
Injected flit rate average = 0.0005
	minimum = 0 (at node 0)
	maximum = 0.008 (at node 9)
Accepted flit rate average= 0.0005
	minimum = 0 (at node 0)
	maximum = 0.008 (at node 13)
Injected packet length average = 1
Accepted packet length average = 1
Total in-flight flits = 0 (0 measured)
Class 16:
Packet latency average = 12
	minimum = 12
	maximum = 12
Network latency average = 12
	minimum = 12
	maximum = 12
Slowest packet = 16
Flit latency average = 12
	minimum = 12
	maximum = 12
Slowest flit = 16
Fragmentation average = 0
	minimum = 0
	maximum = 0
Injected packet rate average = 0.0005
	minimum = 0 (at node 0)
	maximum = 0.008 (at node 10)
Accepted packet rate average = 0.0005
	minimum = 0 (at node 0)
	maximum = 0.008 (at node 14)
Injected flit rate average = 0.0005
	minimum = 0 (at node 0)
	maximum = 0.008 (at node 10)
Accepted flit rate average= 0.0005
	minimum = 0 (at node 0)
	maximum = 0.008 (at node 14)
Injected packet length average = 1
Accepted packet length average = 1
Total in-flight flits = 0 (0 measured)
Class 17:
Packet latency average = 12.0328
	minimum = 12
	maximum = 13
Network latency average = 12.0016
	minimum = 12
	maximum = 13
Slowest packet = 17
Flit latency average = 12.0016
	minimum = 12
	maximum = 13
Slowest flit = 22724
Fragmentation average = 0
	minimum = 0
	maximum = 0
Injected packet rate average = 0.0005
	minimum = 0 (at node 0)
	maximum = 0.008 (at node 11)
Accepted packet rate average = 0.0005
	minimum = 0 (at node 0)
	maximum = 0.008 (at node 7)
Injected flit rate average = 0.0005
	minimum = 0 (at node 0)
	maximum = 0.008 (at node 11)
Accepted flit rate average= 0.0005
	minimum = 0 (at node 0)
	maximum = 0.008 (at node 7)
Injected packet length average = 1
Accepted packet length average = 1
Total in-flight flits = 0 (0 measured)
Class 18:
Packet latency average = 12.0406
	minimum = 12
	maximum = 14
Network latency average = 12.0406
	minimum = 12
	maximum = 14
Slowest packet = 989
Flit latency average = 12.0406
	minimum = 12
	maximum = 14
Slowest flit = 989
Fragmentation average = 0
	minimum = 0
	maximum = 0
Injected packet rate average = 0.00195312
	minimum = 0 (at node 0)
	maximum = 0.03125 (at node 11)
Accepted packet rate average = 0.00195312
	minimum = 0 (at node 0)
	maximum = 0.03125 (at node 15)
Injected flit rate average = 0.00195312
	minimum = 0 (at node 0)
	maximum = 0.03125 (at node 11)
Accepted flit rate average= 0.00195312
	minimum = 0 (at node 0)
	maximum = 0.03125 (at node 15)
Injected packet length average = 1
Accepted packet length average = 1
Total in-flight flits = 0 (0 measured)
Class 19:
Packet latency average = 12.0625
	minimum = 12
	maximum = 13
Network latency average = 12.0625
	minimum = 12
	maximum = 13
Slowest packet = 19
Flit latency average = 12.0625
	minimum = 12
	maximum = 13
Slowest flit = 19
Fragmentation average = 0
	minimum = 0
	maximum = 0
Injected packet rate average = 0.0005
	minimum = 0 (at node 0)
	maximum = 0.008 (at node 12)
Accepted packet rate average = 0.0005
	minimum = 0 (at node 0)
	maximum = 0.008 (at node 8)
Injected flit rate average = 0.0005
	minimum = 0 (at node 0)
	maximum = 0.008 (at node 12)
Accepted flit rate average= 0.0005
	minimum = 0 (at node 0)
	maximum = 0.008 (at node 8)
Injected packet length average = 1
Accepted packet length average = 1
Total in-flight flits = 0 (0 measured)
Class 20:
Packet latency average = 23
	minimum = 23
	maximum = 23
Network latency average = 22
	minimum = 22
	maximum = 22
Slowest packet = 20
Flit latency average = 22
	minimum = 22
	maximum = 22
Slowest flit = 20
Fragmentation average = 0
	minimum = 0
	maximum = 0
Injected packet rate average = 0.0005
	minimum = 0 (at node 0)
	maximum = 0.008 (at node 12)
Accepted packet rate average = 0.0005
	minimum = 0 (at node 0)
	maximum = 0.008 (at node 15)
Injected flit rate average = 0.0005
	minimum = 0 (at node 0)
	maximum = 0.008 (at node 12)
Accepted flit rate average= 0.0005
	minimum = 0 (at node 0)
	maximum = 0.008 (at node 15)
Injected packet length average = 1
Accepted packet length average = 1
Total in-flight flits = 0 (0 measured)
Class 21:
Packet latency average = 12.0625
	minimum = 12
	maximum = 13
Network latency average = 12.0625
	minimum = 12
	maximum = 13
Slowest packet = 979
Flit latency average = 12.0625
	minimum = 12
	maximum = 13
Slowest flit = 979
Fragmentation average = 0
	minimum = 0
	maximum = 0
Injected packet rate average = 0.0005
	minimum = 0 (at node 0)
	maximum = 0.008 (at node 13)
Accepted packet rate average = 0.0005
	minimum = 0 (at node 0)
	maximum = 0.008 (at node 9)
Injected flit rate average = 0.0005
	minimum = 0 (at node 0)
	maximum = 0.008 (at node 13)
Accepted flit rate average= 0.0005
	minimum = 0 (at node 0)
	maximum = 0.008 (at node 9)
Injected packet length average = 1
Accepted packet length average = 1
Total in-flight flits = 0 (0 measured)
Class 22:
Packet latency average = 18
	minimum = 18
	maximum = 18
Network latency average = 17
	minimum = 17
	maximum = 17
Slowest packet = 22
Flit latency average = 17
	minimum = 17
	maximum = 17
Slowest flit = 22
Fragmentation average = 0
	minimum = 0
	maximum = 0
Injected packet rate average = 0.0005
	minimum = 0 (at node 0)
	maximum = 0.008 (at node 13)
Accepted packet rate average = 0.0005
	minimum = 0 (at node 0)
	maximum = 0.008 (at node 15)
Injected flit rate average = 0.0005
	minimum = 0 (at node 0)
	maximum = 0.008 (at node 13)
Accepted flit rate average= 0.0005
	minimum = 0 (at node 0)
	maximum = 0.008 (at node 15)
Injected packet length average = 1
Accepted packet length average = 1
Total in-flight flits = 0 (0 measured)
Class 23:
Packet latency average = 12.0625
	minimum = 12
	maximum = 13
Network latency average = 12.0625
	minimum = 12
	maximum = 13
Slowest packet = 843
Flit latency average = 12.0625
	minimum = 12
	maximum = 13
Slowest flit = 843
Fragmentation average = 0
	minimum = 0
	maximum = 0
Injected packet rate average = 0.0005
	minimum = 0 (at node 0)
	maximum = 0.008 (at node 14)
Accepted packet rate average = 0.0005
	minimum = 0 (at node 0)
	maximum = 0.008 (at node 10)
Injected flit rate average = 0.0005
	minimum = 0 (at node 0)
	maximum = 0.008 (at node 14)
Accepted flit rate average= 0.0005
	minimum = 0 (at node 0)
	maximum = 0.008 (at node 10)
Injected packet length average = 1
Accepted packet length average = 1
Total in-flight flits = 0 (0 measured)
Class 24:
Packet latency average = 13
	minimum = 13
	maximum = 13
Network latency average = 12
	minimum = 12
	maximum = 12
Slowest packet = 24
Flit latency average = 12
	minimum = 12
	maximum = 12
Slowest flit = 24
Fragmentation average = 0
	minimum = 0
	maximum = 0
Injected packet rate average = 0.0005
	minimum = 0 (at node 0)
	maximum = 0.008 (at node 14)
Accepted packet rate average = 0.0005
	minimum = 0 (at node 0)
	maximum = 0.008 (at node 15)
Injected flit rate average = 0.0005
	minimum = 0 (at node 0)
	maximum = 0.008 (at node 14)
Accepted flit rate average= 0.0005
	minimum = 0 (at node 0)
	maximum = 0.008 (at node 15)
Injected packet length average = 1
Accepted packet length average = 1
Total in-flight flits = 0 (0 measured)
Class 25:
Packet latency average = 12
	minimum = 12
	maximum = 12
Network latency average = 12
	minimum = 12
	maximum = 12
Slowest packet = 25
Flit latency average = 12
	minimum = 12
	maximum = 12
Slowest flit = 25
Fragmentation average = 0
	minimum = 0
	maximum = 0
Injected packet rate average = 0.00195312
	minimum = 0 (at node 0)
	maximum = 0.03125 (at node 15)
Accepted packet rate average = 0.00195312
	minimum = 0 (at node 0)
	maximum = 0.03125 (at node 11)
Injected flit rate average = 0.00195312
	minimum = 0 (at node 0)
	maximum = 0.03125 (at node 15)
Accepted flit rate average= 0.00195312
	minimum = 0 (at node 0)
	maximum = 0.03125 (at node 11)
Injected packet length average = 1
Accepted packet length average = 1
Total in-flight flits = 0 (0 measured)
latency change    = 0
throughput change = 0
latency change    = 0
throughput change = 0
latency change    = 0
throughput change = 0
latency change    = 0
throughput change = 0
latency change    = 0
throughput change = 0
latency change    = 8.00019e-07
throughput change = 8.00006e-06
latency change    = 1.75386e-05
throughput change = 8.00006e-06
latency change    = 9.41198e-07
throughput change = 8.00006e-06
latency change    = 0
throughput change = 0
latency change    = 0
throughput change = 8.00006e-06
latency change    = 1.00006e-06
throughput change = 8.00006e-06
latency change    = 2.06164e-05
throughput change = 0
latency change    = 0
throughput change = 0
latency change    = 5.68159e-06
throughput change = 0
latency change    = 0
throughput change = 0
latency change    = 0
throughput change = 0
latency change    = 0
throughput change = 0
latency change    = 5.19413e-06
throughput change = 0
latency change    = 5.31536e-06
throughput change = 0
latency change    = 0
throughput change = 0
latency change    = 0
throughput change = 0
latency change    = 0
throughput change = 0
latency change    = 0
throughput change = 0
latency change    = 0
throughput change = 0
latency change    = 0
throughput change = 0
latency change    = 0
throughput change = 0
Class 0:
Packet latency average = 17
	minimum = 17
	maximum = 17
Network latency average = 17
	minimum = 17
	maximum = 17
Slowest packet = 1101000
Flit latency average = 17
	minimum = 17
	maximum = 17
Slowest flit = 1101000
Fragmentation average = 0
	minimum = 0
	maximum = 0
Injected packet rate average = 0.000125
	minimum = 0 (at node 0)
	maximum = 0.002 (at node 1)
Accepted packet rate average = 0.000125
	minimum = 0 (at node 0)
	maximum = 0.002 (at node 3)
Injected flit rate average = 0.000125
	minimum = 0 (at node 0)
	maximum = 0.002 (at node 1)
Accepted flit rate average= 0.000125
	minimum = 0 (at node 0)
	maximum = 0.002 (at node 3)
Injected packet length average = 1
Accepted packet length average = 1
Total in-flight flits = 0 (0 measured)
Class 1:
Packet latency average = 12
	minimum = 12
	maximum = 12
Network latency average = 12
	minimum = 12
	maximum = 12
Slowest packet = 1101001
Flit latency average = 12
	minimum = 12
	maximum = 12
Slowest flit = 1101001
Fragmentation average = 0
	minimum = 0
	maximum = 0
Injected packet rate average = 0.000125
	minimum = 0 (at node 0)
	maximum = 0.002 (at node 2)
Accepted packet rate average = 0.000125
	minimum = 0 (at node 0)
	maximum = 0.002 (at node 3)
Injected flit rate average = 0.000125
	minimum = 0 (at node 0)
	maximum = 0.002 (at node 2)
Accepted flit rate average= 0.000125
	minimum = 0 (at node 0)
	maximum = 0.002 (at node 3)
Injected packet length average = 1
Accepted packet length average = 1
Total in-flight flits = 0 (0 measured)
Class 2:
Packet latency average = 17
	minimum = 17
	maximum = 17
Network latency average = 17
	minimum = 17
	maximum = 17
Slowest packet = 1101002
Flit latency average = 17
	minimum = 17
	maximum = 17
Slowest flit = 1101002
Fragmentation average = 0
	minimum = 0
	maximum = 0
Injected packet rate average = 0.000125
	minimum = 0 (at node 0)
	maximum = 0.002 (at node 3)
Accepted packet rate average = 0.000125
	minimum = 0 (at node 0)
	maximum = 0.002 (at node 1)
Injected flit rate average = 0.000125
	minimum = 0 (at node 0)
	maximum = 0.002 (at node 3)
Accepted flit rate average= 0.000125
	minimum = 0 (at node 0)
	maximum = 0.002 (at node 1)
Injected packet length average = 1
Accepted packet length average = 1
Total in-flight flits = 0 (0 measured)
Class 3:
Packet latency average = 13
	minimum = 13
	maximum = 13
Network latency average = 12
	minimum = 12
	maximum = 12
Slowest packet = 1101003
Flit latency average = 12
	minimum = 12
	maximum = 12
Slowest flit = 1101003
Fragmentation average = 0
	minimum = 0
	maximum = 0
Injected packet rate average = 0.000125
	minimum = 0 (at node 0)
	maximum = 0.002 (at node 3)
Accepted packet rate average = 0.000125
	minimum = 0 (at node 0)
	maximum = 0.002 (at node 2)
Injected flit rate average = 0.000125
	minimum = 0 (at node 0)
	maximum = 0.002 (at node 3)
Accepted flit rate average= 0.000125
	minimum = 0 (at node 0)
	maximum = 0.002 (at node 2)
Injected packet length average = 1
Accepted packet length average = 1
Total in-flight flits = 0 (0 measured)
Class 4:
Packet latency average = 14.048
	minimum = 14
	maximum = 16
Network latency average = 12.048
	minimum = 12
	maximum = 14
Slowest packet = 1101004
Flit latency average = 12.048
	minimum = 12
	maximum = 14
Slowest flit = 1123579
Fragmentation average = 0
	minimum = 0
	maximum = 0
Injected packet rate average = 6.25e-05
	minimum = 0 (at node 0)
	maximum = 0.001 (at node 3)
Accepted packet rate average = 6.25e-05
	minimum = 0 (at node 0)
	maximum = 0.001 (at node 7)
Injected flit rate average = 6.25e-05
	minimum = 0 (at node 0)
	maximum = 0.001 (at node 3)
Accepted flit rate average= 6.25e-05
	minimum = 0 (at node 0)
	maximum = 0.001 (at node 7)
Injected packet length average = 1
Accepted packet length average = 1
Total in-flight flits = 0 (0 measured)
Class 5:
Packet latency average = 20
	minimum = 20
	maximum = 20
Network latency average = 17
	minimum = 17
	maximum = 17
Slowest packet = 1100994
Flit latency average = 17
	minimum = 17
	maximum = 17
Slowest flit = 1100994
Fragmentation average = 0
	minimum = 0
	maximum = 0
Injected packet rate average = 0.00390625
	minimum = 0 (at node 0)
	maximum = 0.0625 (at node 4)
Accepted packet rate average = 0.00390625
	minimum = 0 (at node 0)
	maximum = 0.0625 (at node 1)
Injected flit rate average = 0.00390625
	minimum = 0 (at node 0)
	maximum = 0.0625 (at node 4)
Accepted flit rate average= 0.00390625
	minimum = 0 (at node 0)
	maximum = 0.0625 (at node 1)
Injected packet length average = 1
Accepted packet length average = 1
Total in-flight flits = 1 (0 measured)
Class 6:
Packet latency average = 26
	minimum = 26
	maximum = 26
Network latency average = 22
	minimum = 22
	maximum = 22
Slowest packet = 1100995
Flit latency average = 22
	minimum = 22
	maximum = 22
Slowest flit = 1100995
Fragmentation average = 0
	minimum = 0
	maximum = 0
Injected packet rate average = 0.00390625
	minimum = 0 (at node 0)
	maximum = 0.0625 (at node 4)
Accepted packet rate average = 0.00390625
	minimum = 0 (at node 0)
	maximum = 0.0625 (at node 2)
Injected flit rate average = 0.00390625
	minimum = 0 (at node 0)
	maximum = 0.0625 (at node 4)
Accepted flit rate average= 0.00390625
	minimum = 0 (at node 0)
	maximum = 0.0625 (at node 2)
Injected packet length average = 1
Accepted packet length average = 1
Total in-flight flits = 1 (0 measured)
Class 7:
Packet latency average = 17
	minimum = 17
	maximum = 17
Network latency average = 12
	minimum = 12
	maximum = 12
Slowest packet = 1100996
Flit latency average = 12
	minimum = 12
	maximum = 12
Slowest flit = 1100996
Fragmentation average = 0
	minimum = 0
	maximum = 0
Injected packet rate average = 0.00390625
	minimum = 0 (at node 0)
	maximum = 0.0625 (at node 4)
Accepted packet rate average = 0.00390625
	minimum = 0 (at node 0)
	maximum = 0.0625 (at node 5)
Injected flit rate average = 0.00390625
	minimum = 0 (at node 0)
	maximum = 0.0625 (at node 4)
Accepted flit rate average= 0.00390625
	minimum = 0 (at node 0)
	maximum = 0.0625 (at node 5)
Injected packet length average = 1
Accepted packet length average = 1
Total in-flight flits = 1 (0 measured)
Class 8:
Packet latency average = 12
	minimum = 12
	maximum = 12
Network latency average = 12
	minimum = 12
	maximum = 12
Slowest packet = 1101008
Flit latency average = 12
	minimum = 12
	maximum = 12
Slowest flit = 1101008
Fragmentation average = 0
	minimum = 0
	maximum = 0
Injected packet rate average = 0.00390625
	minimum = 0 (at node 0)
	maximum = 0.0625 (at node 4)
Accepted packet rate average = 0.00390625
	minimum = 0 (at node 0)
	maximum = 0.0625 (at node 8)
Injected flit rate average = 0.00390625
	minimum = 0 (at node 0)
	maximum = 0.0625 (at node 4)
Accepted flit rate average= 0.00390625
	minimum = 0 (at node 0)
	maximum = 0.0625 (at node 8)
Injected packet length average = 1
Accepted packet length average = 1
Total in-flight flits = 0 (0 measured)
Class 9:
Packet latency average = 18
	minimum = 18
	maximum = 18
Network latency average = 17
	minimum = 17
	maximum = 17
Slowest packet = 1100998
Flit latency average = 17
	minimum = 17
	maximum = 17
Slowest flit = 1100998
Fragmentation average = 0
	minimum = 0
	maximum = 0
Injected packet rate average = 0.00390625
	minimum = 0 (at node 0)
	maximum = 0.0625 (at node 4)
Accepted packet rate average = 0.00390625
	minimum = 0 (at node 0)
	maximum = 0.0625 (at node 9)
Injected flit rate average = 0.00390625
	minimum = 0 (at node 0)
	maximum = 0.0625 (at node 4)
Accepted flit rate average= 0.00390625
	minimum = 0 (at node 0)
	maximum = 0.0625 (at node 9)
Injected packet length average = 1
Accepted packet length average = 1
Total in-flight flits = 1 (0 measured)
Class 10:
Packet latency average = 24.0001
	minimum = 24
	maximum = 25
Network latency average = 22.0001
	minimum = 22
	maximum = 23
Slowest packet = 1100999
Flit latency average = 22.0001
	minimum = 22
	maximum = 23
Slowest flit = 1124748
Fragmentation average = 0
	minimum = 0
	maximum = 0
Injected packet rate average = 0.00390625
	minimum = 0 (at node 0)
	maximum = 0.0625 (at node 4)
Accepted packet rate average = 0.00390625
	minimum = 0 (at node 0)
	maximum = 0.0625 (at node 10)
Injected flit rate average = 0.00390625
	minimum = 0 (at node 0)
	maximum = 0.0625 (at node 4)
Accepted flit rate average= 0.00390625
	minimum = 0 (at node 0)
	maximum = 0.0625 (at node 10)
Injected packet length average = 1
Accepted packet length average = 1
Total in-flight flits = 1 (0 measured)
Class 11:
Packet latency average = 12.126
	minimum = 12
	maximum = 13
Network latency average = 12.126
	minimum = 12
	maximum = 13
Slowest packet = 1101212
Flit latency average = 12.126
	minimum = 12
	maximum = 13
Slowest flit = 1101212
Fragmentation average = 0
	minimum = 0
	maximum = 0
Injected packet rate average = 0.0005
	minimum = 0 (at node 0)
	maximum = 0.008 (at node 5)
Accepted packet rate average = 0.0005
	minimum = 0 (at node 0)
	maximum = 0.008 (at node 6)
Injected flit rate average = 0.0005
	minimum = 0 (at node 0)
	maximum = 0.008 (at node 5)
Accepted flit rate average= 0.0005
	minimum = 0 (at node 0)
	maximum = 0.008 (at node 6)
Injected packet length average = 1
Accepted packet length average = 1
Total in-flight flits = 0 (0 measured)
Class 12:
Packet latency average = 13.0625
	minimum = 13
	maximum = 14
Network latency average = 12.0625
	minimum = 12
	maximum = 13
Slowest packet = 1101012
Flit latency average = 12.0625
	minimum = 12
	maximum = 13
Slowest flit = 1101286
Fragmentation average = 0
	minimum = 0
	maximum = 0
Injected packet rate average = 0.0005
	minimum = 0 (at node 0)
	maximum = 0.008 (at node 6)
Accepted packet rate average = 0.0005
	minimum = 0 (at node 0)
	maximum = 0.008 (at node 5)
Injected flit rate average = 0.0005
	minimum = 0 (at node 0)
	maximum = 0.008 (at node 6)
Accepted flit rate average= 0.0005
	minimum = 0 (at node 0)
	maximum = 0.008 (at node 5)
Injected packet length average = 1
Accepted packet length average = 1
Total in-flight flits = 0 (0 measured)
Class 13:
Packet latency average = 22.0015
	minimum = 22
	maximum = 24
Network latency average = 22.0015
	minimum = 22
	maximum = 24
Slowest packet = 1241388
Flit latency average = 22.0015
	minimum = 22
	maximum = 24
Slowest flit = 1241388
Fragmentation average = 0
	minimum = 0
	maximum = 0
Injected packet rate average = 0.0005
	minimum = 0 (at node 0)
	maximum = 0.008 (at node 6)
Accepted packet rate average = 0.0005
	minimum = 0 (at node 0)
	maximum = 0.008 (at node 15)
Injected flit rate average = 0.0005
	minimum = 0 (at node 0)
	maximum = 0.008 (at node 6)
Accepted flit rate average= 0.0005
	minimum = 0 (at node 0)
	maximum = 0.008 (at node 15)
Injected packet length average = 1
Accepted packet length average = 1
Total in-flight flits = 0 (0 measured)
Class 14:
Packet latency average = 12
	minimum = 12
	maximum = 12
Network latency average = 12
	minimum = 12
	maximum = 12
Slowest packet = 1101014
Flit latency average = 12
	minimum = 12
	maximum = 12
Slowest flit = 1101014
Fragmentation average = 0
	minimum = 0
	maximum = 0
Injected packet rate average = 0.0005
	minimum = 0 (at node 0)
	maximum = 0.008 (at node 8)
Accepted packet rate average = 0.0005
	minimum = 0 (at node 0)
	maximum = 0.008 (at node 12)
Injected flit rate average = 0.0005
	minimum = 0 (at node 0)
	maximum = 0.008 (at node 8)
Accepted flit rate average= 0.0005
	minimum = 0 (at node 0)
	maximum = 0.008 (at node 12)
Injected packet length average = 1
Accepted packet length average = 1
Total in-flight flits = 0 (0 measured)
Class 15:
Packet latency average = 12
	minimum = 12
	maximum = 12
Network latency average = 12
	minimum = 12
	maximum = 12
Slowest packet = 1101015
Flit latency average = 12
	minimum = 12
	maximum = 12
Slowest flit = 1101015
Fragmentation average = 0
	minimum = 0
	maximum = 0
Injected packet rate average = 0.0005
	minimum = 0 (at node 0)
	maximum = 0.008 (at node 9)
Accepted packet rate average = 0.0005
	minimum = 0 (at node 0)
	maximum = 0.008 (at node 13)
Injected flit rate average = 0.0005
	minimum = 0 (at node 0)
	maximum = 0.008 (at node 9)
Accepted flit rate average= 0.0005
	minimum = 0 (at node 0)
	maximum = 0.008 (at node 13)
Injected packet length average = 1
Accepted packet length average = 1
Total in-flight flits = 0 (0 measured)
Class 16:
Packet latency average = 12
	minimum = 12
	maximum = 12
Network latency average = 12
	minimum = 12
	maximum = 12
Slowest packet = 1101016
Flit latency average = 12
	minimum = 12
	maximum = 12
Slowest flit = 1101016
Fragmentation average = 0
	minimum = 0
	maximum = 0
Injected packet rate average = 0.0005
	minimum = 0 (at node 0)
	maximum = 0.008 (at node 10)
Accepted packet rate average = 0.0005
	minimum = 0 (at node 0)
	maximum = 0.008 (at node 14)
Injected flit rate average = 0.0005
	minimum = 0 (at node 0)
	maximum = 0.008 (at node 10)
Accepted flit rate average= 0.0005
	minimum = 0 (at node 0)
	maximum = 0.008 (at node 14)
Injected packet length average = 1
Accepted packet length average = 1
Total in-flight flits = 0 (0 measured)
Class 17:
Packet latency average = 12.0328
	minimum = 12
	maximum = 13
Network latency average = 12.0015
	minimum = 12
	maximum = 13
Slowest packet = 1101017
Flit latency average = 12.0015
	minimum = 12
	maximum = 13
Slowest flit = 1123724
Fragmentation average = 0
	minimum = 0
	maximum = 0
Injected packet rate average = 0.0005
	minimum = 0 (at node 0)
	maximum = 0.008 (at node 11)
Accepted packet rate average = 0.0005
	minimum = 0 (at node 0)
	maximum = 0.008 (at node 7)
Injected flit rate average = 0.0005
	minimum = 0 (at node 0)
	maximum = 0.008 (at node 11)
Accepted flit rate average= 0.0005
	minimum = 0 (at node 0)
	maximum = 0.008 (at node 7)
Injected packet length average = 1
Accepted packet length average = 1
Total in-flight flits = 0 (0 measured)
Class 18:
Packet latency average = 12.0405
	minimum = 12
	maximum = 14
Network latency average = 12.0405
	minimum = 12
	maximum = 14
Slowest packet = 1101989
Flit latency average = 12.0405
	minimum = 12
	maximum = 14
Slowest flit = 1101989
Fragmentation average = 0
	minimum = 0
	maximum = 0
Injected packet rate average = 0.00195312
	minimum = 0 (at node 0)
	maximum = 0.03125 (at node 11)
Accepted packet rate average = 0.00195312
	minimum = 0 (at node 0)
	maximum = 0.03125 (at node 15)
Injected flit rate average = 0.00195312
	minimum = 0 (at node 0)
	maximum = 0.03125 (at node 11)
Accepted flit rate average= 0.00195312
	minimum = 0 (at node 0)
	maximum = 0.03125 (at node 15)
Injected packet length average = 1
Accepted packet length average = 1
Total in-flight flits = 0 (0 measured)
Class 19:
Packet latency average = 12.0625
	minimum = 12
	maximum = 13
Network latency average = 12.0625
	minimum = 12
	maximum = 13
Slowest packet = 1101019
Flit latency average = 12.0625
	minimum = 12
	maximum = 13
Slowest flit = 1101019
Fragmentation average = 0
	minimum = 0
	maximum = 0
Injected packet rate average = 0.0005
	minimum = 0 (at node 0)
	maximum = 0.008 (at node 12)
Accepted packet rate average = 0.0005
	minimum = 0 (at node 0)
	maximum = 0.008 (at node 8)
Injected flit rate average = 0.0005
	minimum = 0 (at node 0)
	maximum = 0.008 (at node 12)
Accepted flit rate average= 0.0005
	minimum = 0 (at node 0)
	maximum = 0.008 (at node 8)
Injected packet length average = 1
Accepted packet length average = 1
Total in-flight flits = 0 (0 measured)
Class 20:
Packet latency average = 23
	minimum = 23
	maximum = 23
Network latency average = 22
	minimum = 22
	maximum = 22
Slowest packet = 1101020
Flit latency average = 22
	minimum = 22
	maximum = 22
Slowest flit = 1101020
Fragmentation average = 0
	minimum = 0
	maximum = 0
Injected packet rate average = 0.0005
	minimum = 0 (at node 0)
	maximum = 0.008 (at node 12)
Accepted packet rate average = 0.0005
	minimum = 0 (at node 0)
	maximum = 0.008 (at node 15)
Injected flit rate average = 0.0005
	minimum = 0 (at node 0)
	maximum = 0.008 (at node 12)
Accepted flit rate average= 0.0005
	minimum = 0 (at node 0)
	maximum = 0.008 (at node 15)
Injected packet length average = 1
Accepted packet length average = 1
Total in-flight flits = 0 (0 measured)
Class 21:
Packet latency average = 12.0625
	minimum = 12
	maximum = 13
Network latency average = 12.0625
	minimum = 12
	maximum = 13
Slowest packet = 1101979
Flit latency average = 12.0625
	minimum = 12
	maximum = 13
Slowest flit = 1101979
Fragmentation average = 0
	minimum = 0
	maximum = 0
Injected packet rate average = 0.0005
	minimum = 0 (at node 0)
	maximum = 0.008 (at node 13)
Accepted packet rate average = 0.0005
	minimum = 0 (at node 0)
	maximum = 0.008 (at node 9)
Injected flit rate average = 0.0005
	minimum = 0 (at node 0)
	maximum = 0.008 (at node 13)
Accepted flit rate average= 0.0005
	minimum = 0 (at node 0)
	maximum = 0.008 (at node 9)
Injected packet length average = 1
Accepted packet length average = 1
Total in-flight flits = 0 (0 measured)
Class 22:
Packet latency average = 18
	minimum = 18
	maximum = 18
Network latency average = 17
	minimum = 17
	maximum = 17
Slowest packet = 1101022
Flit latency average = 17
	minimum = 17
	maximum = 17
Slowest flit = 1101022
Fragmentation average = 0
	minimum = 0
	maximum = 0
Injected packet rate average = 0.0005
	minimum = 0 (at node 0)
	maximum = 0.008 (at node 13)
Accepted packet rate average = 0.0005
	minimum = 0 (at node 0)
	maximum = 0.008 (at node 15)
Injected flit rate average = 0.0005
	minimum = 0 (at node 0)
	maximum = 0.008 (at node 13)
Accepted flit rate average= 0.0005
	minimum = 0 (at node 0)
	maximum = 0.008 (at node 15)
Injected packet length average = 1
Accepted packet length average = 1
Total in-flight flits = 0 (0 measured)
Class 23:
Packet latency average = 12.0625
	minimum = 12
	maximum = 13
Network latency average = 12.0625
	minimum = 12
	maximum = 13
Slowest packet = 1101843
Flit latency average = 12.0625
	minimum = 12
	maximum = 13
Slowest flit = 1101843
Fragmentation average = 0
	minimum = 0
	maximum = 0
Injected packet rate average = 0.0005
	minimum = 0 (at node 0)
	maximum = 0.008 (at node 14)
Accepted packet rate average = 0.0005
	minimum = 0 (at node 0)
	maximum = 0.008 (at node 10)
Injected flit rate average = 0.0005
	minimum = 0 (at node 0)
	maximum = 0.008 (at node 14)
Accepted flit rate average= 0.0005
	minimum = 0 (at node 0)
	maximum = 0.008 (at node 10)
Injected packet length average = 1
Accepted packet length average = 1
Total in-flight flits = 0 (0 measured)
Class 24:
Packet latency average = 13
	minimum = 13
	maximum = 13
Network latency average = 12
	minimum = 12
	maximum = 12
Slowest packet = 1101024
Flit latency average = 12
	minimum = 12
	maximum = 12
Slowest flit = 1101024
Fragmentation average = 0
	minimum = 0
	maximum = 0
Injected packet rate average = 0.0005
	minimum = 0 (at node 0)
	maximum = 0.008 (at node 14)
Accepted packet rate average = 0.0005
	minimum = 0 (at node 0)
	maximum = 0.008 (at node 15)
Injected flit rate average = 0.0005
	minimum = 0 (at node 0)
	maximum = 0.008 (at node 14)
Accepted flit rate average= 0.0005
	minimum = 0 (at node 0)
	maximum = 0.008 (at node 15)
Injected packet length average = 1
Accepted packet length average = 1
Total in-flight flits = 0 (0 measured)
Class 25:
Packet latency average = 12
	minimum = 12
	maximum = 12
Network latency average = 12
	minimum = 12
	maximum = 12
Slowest packet = 1101025
Flit latency average = 12
	minimum = 12
	maximum = 12
Slowest flit = 1101025
Fragmentation average = 0
	minimum = 0
	maximum = 0
Injected packet rate average = 0.00195312
	minimum = 0 (at node 0)
	maximum = 0.03125 (at node 15)
Accepted packet rate average = 0.00195312
	minimum = 0 (at node 0)
	maximum = 0.03125 (at node 11)
Injected flit rate average = 0.00195312
	minimum = 0 (at node 0)
	maximum = 0.03125 (at node 15)
Accepted flit rate average= 0.00195312
	minimum = 0 (at node 0)
	maximum = 0.03125 (at node 11)
Injected packet length average = 1
Accepted packet length average = 1
Total in-flight flits = 0 (0 measured)
latency change    = 0
throughput change = 0
latency change    = 0
throughput change = 0
latency change    = 0
throughput change = 0
latency change    = 0
throughput change = 0
latency change    = 0.000213554
throughput change = 0
latency change    = 8.00006e-07
throughput change = 8e-06
latency change    = 1.75386e-05
throughput change = 8e-06
latency change    = 9.41184e-07
throughput change = 8e-06
latency change    = 0
throughput change = 0
latency change    = 0
throughput change = 8e-06
latency change    = 3.33286e-07
throughput change = 8e-06
latency change    = 2.06169e-05
throughput change = 0
latency change    = 0
throughput change = 0
latency change    = 2.84072e-05
throughput change = 0
latency change    = 0
throughput change = 0
latency change    = 0
throughput change = 0
latency change    = 0
throughput change = 0
latency change    = 5.19416e-06
throughput change = 0
latency change    = 5.31539e-06
throughput change = 0
latency change    = 0
throughput change = 0
latency change    = 0
throughput change = 0
latency change    = 0
throughput change = 0
latency change    = 0
throughput change = 0
latency change    = 0
throughput change = 0
latency change    = 0
throughput change = 0
latency change    = 0
throughput change = 0
Warmed up ...Time used is 3000000 cycles
Class 0:
Packet latency average = 17
	minimum = 17
	maximum = 17
Network latency average = 17
	minimum = 17
	maximum = 17
Slowest packet = 1651500
Flit latency average = 17
	minimum = 17
	maximum = 17
Slowest flit = 1651500
Fragmentation average = 0
	minimum = 0
	maximum = 0
Injected packet rate average = 0.000125
	minimum = 0 (at node 0)
	maximum = 0.002 (at node 1)
Accepted packet rate average = 0.000125
	minimum = 0 (at node 0)
	maximum = 0.002 (at node 3)
Injected flit rate average = 0.000125
	minimum = 0 (at node 0)
	maximum = 0.002 (at node 1)
Accepted flit rate average= 0.000125
	minimum = 0 (at node 0)
	maximum = 0.002 (at node 3)
Injected packet length average = 1
Accepted packet length average = 1
Total in-flight flits = 0 (0 measured)
Class 1:
Packet latency average = 12
	minimum = 12
	maximum = 12
Network latency average = 12
	minimum = 12
	maximum = 12
Slowest packet = 1651501
Flit latency average = 12
	minimum = 12
	maximum = 12
Slowest flit = 1651501
Fragmentation average = 0
	minimum = 0
	maximum = 0
Injected packet rate average = 0.000125
	minimum = 0 (at node 0)
	maximum = 0.002 (at node 2)
Accepted packet rate average = 0.000125
	minimum = 0 (at node 0)
	maximum = 0.002 (at node 3)
Injected flit rate average = 0.000125
	minimum = 0 (at node 0)
	maximum = 0.002 (at node 2)
Accepted flit rate average= 0.000125
	minimum = 0 (at node 0)
	maximum = 0.002 (at node 3)
Injected packet length average = 1
Accepted packet length average = 1
Total in-flight flits = 0 (0 measured)
Class 2:
Packet latency average = 17
	minimum = 17
	maximum = 17
Network latency average = 17
	minimum = 17
	maximum = 17
Slowest packet = 1651502
Flit latency average = 17
	minimum = 17
	maximum = 17
Slowest flit = 1651502
Fragmentation average = 0
	minimum = 0
	maximum = 0
Injected packet rate average = 0.000125
	minimum = 0 (at node 0)
	maximum = 0.002 (at node 3)
Accepted packet rate average = 0.000125
	minimum = 0 (at node 0)
	maximum = 0.002 (at node 1)
Injected flit rate average = 0.000125
	minimum = 0 (at node 0)
	maximum = 0.002 (at node 3)
Accepted flit rate average= 0.000125
	minimum = 0 (at node 0)
	maximum = 0.002 (at node 1)
Injected packet length average = 1
Accepted packet length average = 1
Total in-flight flits = 0 (0 measured)
Class 3:
Packet latency average = 13
	minimum = 13
	maximum = 13
Network latency average = 12
	minimum = 12
	maximum = 12
Slowest packet = 1651503
Flit latency average = 12
	minimum = 12
	maximum = 12
Slowest flit = 1651503
Fragmentation average = 0
	minimum = 0
	maximum = 0
Injected packet rate average = 0.000125
	minimum = 0 (at node 0)
	maximum = 0.002 (at node 3)
Accepted packet rate average = 0.000125
	minimum = 0 (at node 0)
	maximum = 0.002 (at node 2)
Injected flit rate average = 0.000125
	minimum = 0 (at node 0)
	maximum = 0.002 (at node 3)
Accepted flit rate average= 0.000125
	minimum = 0 (at node 0)
	maximum = 0.002 (at node 2)
Injected packet length average = 1
Accepted packet length average = 1
Total in-flight flits = 0 (0 measured)
Class 4:
Packet latency average = 14.051
	minimum = 14
	maximum = 16
Network latency average = 12.051
	minimum = 12
	maximum = 14
Slowest packet = 1651504
Flit latency average = 12.051
	minimum = 12
	maximum = 14
Slowest flit = 1652059
Fragmentation average = 0
	minimum = 0
	maximum = 0
Injected packet rate average = 6.25e-05
	minimum = 0 (at node 0)
	maximum = 0.001 (at node 3)
Accepted packet rate average = 6.25e-05
	minimum = 0 (at node 0)
	maximum = 0.001 (at node 7)
Injected flit rate average = 6.25e-05
	minimum = 0 (at node 0)
	maximum = 0.001 (at node 3)
Accepted flit rate average= 6.25e-05
	minimum = 0 (at node 0)
	maximum = 0.001 (at node 7)
Injected packet length average = 1
Accepted packet length average = 1
Total in-flight flits = 0 (0 measured)
Class 5:
Packet latency average = 20
	minimum = 20
	maximum = 20
Network latency average = 17
	minimum = 17
	maximum = 17
Slowest packet = 1651505
Flit latency average = 17
	minimum = 17
	maximum = 17
Slowest flit = 1651494
Fragmentation average = 0
	minimum = 0
	maximum = 0
Injected packet rate average = 0.00390625
	minimum = 0 (at node 0)
	maximum = 0.0625 (at node 4)
Accepted packet rate average = 0.00390625
	minimum = 0 (at node 0)
	maximum = 0.0625 (at node 1)
Injected flit rate average = 0.00390625
	minimum = 0 (at node 0)
	maximum = 0.0625 (at node 4)
Accepted flit rate average= 0.00390625
	minimum = 0 (at node 0)
	maximum = 0.0625 (at node 1)
Injected packet length average = 1
Accepted packet length average = 1
Total in-flight flits = 1 (1 measured)
Class 6:
Packet latency average = 26
	minimum = 26
	maximum = 26
Network latency average = 22
	minimum = 22
	maximum = 22
Slowest packet = 1651506
Flit latency average = 22
	minimum = 22
	maximum = 22
Slowest flit = 1651495
Fragmentation average = 0
	minimum = 0
	maximum = 0
Injected packet rate average = 0.00390625
	minimum = 0 (at node 0)
	maximum = 0.0625 (at node 4)
Accepted packet rate average = 0.00390625
	minimum = 0 (at node 0)
	maximum = 0.0625 (at node 2)
Injected flit rate average = 0.00390625
	minimum = 0 (at node 0)
	maximum = 0.0625 (at node 4)
Accepted flit rate average= 0.00390625
	minimum = 0 (at node 0)
	maximum = 0.0625 (at node 2)
Injected packet length average = 1
Accepted packet length average = 1
Total in-flight flits = 1 (1 measured)
Class 7:
Packet latency average = 17
	minimum = 17
	maximum = 17
Network latency average = 12
	minimum = 12
	maximum = 12
Slowest packet = 1651507
Flit latency average = 12
	minimum = 12
	maximum = 12
Slowest flit = 1651496
Fragmentation average = 0
	minimum = 0
	maximum = 0
Injected packet rate average = 0.00390625
	minimum = 0 (at node 0)
	maximum = 0.0625 (at node 4)
Accepted packet rate average = 0.00390625
	minimum = 0 (at node 0)
	maximum = 0.0625 (at node 5)
Injected flit rate average = 0.00390625
	minimum = 0 (at node 0)
	maximum = 0.0625 (at node 4)
Accepted flit rate average= 0.00390625
	minimum = 0 (at node 0)
	maximum = 0.0625 (at node 5)
Injected packet length average = 1
Accepted packet length average = 1
Total in-flight flits = 1 (1 measured)
Class 8:
Packet latency average = 12
	minimum = 12
	maximum = 12
Network latency average = 12
	minimum = 12
	maximum = 12
Slowest packet = 1651508
Flit latency average = 12
	minimum = 12
	maximum = 12
Slowest flit = 1651508
Fragmentation average = 0
	minimum = 0
	maximum = 0
Injected packet rate average = 0.00390625
	minimum = 0 (at node 0)
	maximum = 0.0625 (at node 4)
Accepted packet rate average = 0.00390625
	minimum = 0 (at node 0)
	maximum = 0.0625 (at node 8)
Injected flit rate average = 0.00390625
	minimum = 0 (at node 0)
	maximum = 0.0625 (at node 4)
Accepted flit rate average= 0.00390625
	minimum = 0 (at node 0)
	maximum = 0.0625 (at node 8)
Injected packet length average = 1
Accepted packet length average = 1
Total in-flight flits = 0 (0 measured)
Class 9:
Packet latency average = 18
	minimum = 18
	maximum = 18
Network latency average = 17
	minimum = 17
	maximum = 17
Slowest packet = 1651509
Flit latency average = 17
	minimum = 17
	maximum = 17
Slowest flit = 1651498
Fragmentation average = 0
	minimum = 0
	maximum = 0
Injected packet rate average = 0.00390625
	minimum = 0 (at node 0)
	maximum = 0.0625 (at node 4)
Accepted packet rate average = 0.00390625
	minimum = 0 (at node 0)
	maximum = 0.0625 (at node 9)
Injected flit rate average = 0.00390625
	minimum = 0 (at node 0)
	maximum = 0.0625 (at node 4)
Accepted flit rate average= 0.00390625
	minimum = 0 (at node 0)
	maximum = 0.0625 (at node 9)
Injected packet length average = 1
Accepted packet length average = 1
Total in-flight flits = 1 (1 measured)
Class 10:
Packet latency average = 24.0001
	minimum = 24
	maximum = 25
Network latency average = 22.0001
	minimum = 22
	maximum = 23
Slowest packet = 1651510
Flit latency average = 22.0001
	minimum = 22
	maximum = 23
Slowest flit = 1695066
Fragmentation average = 0
	minimum = 0
	maximum = 0
Injected packet rate average = 0.00390625
	minimum = 0 (at node 0)
	maximum = 0.0625 (at node 4)
Accepted packet rate average = 0.00390625
	minimum = 0 (at node 0)
	maximum = 0.0625 (at node 10)
Injected flit rate average = 0.00390625
	minimum = 0 (at node 0)
	maximum = 0.0625 (at node 4)
Accepted flit rate average= 0.00390625
	minimum = 0 (at node 0)
	maximum = 0.0625 (at node 10)
Injected packet length average = 1
Accepted packet length average = 1
Total in-flight flits = 1 (1 measured)
Class 11:
Packet latency average = 12.1261
	minimum = 12
	maximum = 13
Network latency average = 12.1261
	minimum = 12
	maximum = 13
Slowest packet = 1651712
Flit latency average = 12.1261
	minimum = 12
	maximum = 13
Slowest flit = 1651712
Fragmentation average = 0
	minimum = 0
	maximum = 0
Injected packet rate average = 0.0005
	minimum = 0 (at node 0)
	maximum = 0.008 (at node 5)
Accepted packet rate average = 0.0005
	minimum = 0 (at node 0)
	maximum = 0.008 (at node 6)
Injected flit rate average = 0.0005
	minimum = 0 (at node 0)
	maximum = 0.008 (at node 5)
Accepted flit rate average= 0.0005
	minimum = 0 (at node 0)
	maximum = 0.008 (at node 6)
Injected packet length average = 1
Accepted packet length average = 1
Total in-flight flits = 0 (0 measured)
Class 12:
Packet latency average = 13.0625
	minimum = 13
	maximum = 14
Network latency average = 12.0625
	minimum = 12
	maximum = 13
Slowest packet = 1651512
Flit latency average = 12.0625
	minimum = 12
	maximum = 13
Slowest flit = 1651786
Fragmentation average = 0
	minimum = 0
	maximum = 0
Injected packet rate average = 0.0005
	minimum = 0 (at node 0)
	maximum = 0.008 (at node 6)
Accepted packet rate average = 0.0005
	minimum = 0 (at node 0)
	maximum = 0.008 (at node 5)
Injected flit rate average = 0.0005
	minimum = 0 (at node 0)
	maximum = 0.008 (at node 6)
Accepted flit rate average= 0.0005
	minimum = 0 (at node 0)
	maximum = 0.008 (at node 5)
Injected packet length average = 1
Accepted packet length average = 1
Total in-flight flits = 0 (0 measured)
Class 13:
Packet latency average = 22.0008
	minimum = 22
	maximum = 24
Network latency average = 22.0008
	minimum = 22
	maximum = 24
Slowest packet = 1741242
Flit latency average = 22.0008
	minimum = 22
	maximum = 24
Slowest flit = 1741242
Fragmentation average = 0
	minimum = 0
	maximum = 0
Injected packet rate average = 0.0005
	minimum = 0 (at node 0)
	maximum = 0.008 (at node 6)
Accepted packet rate average = 0.0005
	minimum = 0 (at node 0)
	maximum = 0.008 (at node 15)
Injected flit rate average = 0.0005
	minimum = 0 (at node 0)
	maximum = 0.008 (at node 6)
Accepted flit rate average= 0.0005
	minimum = 0 (at node 0)
	maximum = 0.008 (at node 15)
Injected packet length average = 1
Accepted packet length average = 1
Total in-flight flits = 0 (0 measured)
Class 14:
Packet latency average = 12
	minimum = 12
	maximum = 12
Network latency average = 12
	minimum = 12
	maximum = 12
Slowest packet = 1651514
Flit latency average = 12
	minimum = 12
	maximum = 12
Slowest flit = 1651514
Fragmentation average = 0
	minimum = 0
	maximum = 0
Injected packet rate average = 0.0005
	minimum = 0 (at node 0)
	maximum = 0.008 (at node 8)
Accepted packet rate average = 0.0005
	minimum = 0 (at node 0)
	maximum = 0.008 (at node 12)
Injected flit rate average = 0.0005
	minimum = 0 (at node 0)
	maximum = 0.008 (at node 8)
Accepted flit rate average= 0.0005
	minimum = 0 (at node 0)
	maximum = 0.008 (at node 12)
Injected packet length average = 1
Accepted packet length average = 1
Total in-flight flits = 0 (0 measured)
Class 15:
Packet latency average = 12
	minimum = 12
	maximum = 12
Network latency average = 12
	minimum = 12
	maximum = 12
Slowest packet = 1651515
Flit latency average = 12
	minimum = 12
	maximum = 12
Slowest flit = 1651515
Fragmentation average = 0
	minimum = 0
	maximum = 0
Injected packet rate average = 0.0005
	minimum = 0 (at node 0)
	maximum = 0.008 (at node 9)
Accepted packet rate average = 0.0005
	minimum = 0 (at node 0)
	maximum = 0.008 (at node 13)
Injected flit rate average = 0.0005
	minimum = 0 (at node 0)
	maximum = 0.008 (at node 9)
Accepted flit rate average= 0.0005
	minimum = 0 (at node 0)
	maximum = 0.008 (at node 13)
Injected packet length average = 1
Accepted packet length average = 1
Total in-flight flits = 0 (0 measured)
Class 16:
Packet latency average = 12
	minimum = 12
	maximum = 12
Network latency average = 12
	minimum = 12
	maximum = 12
Slowest packet = 1651516
Flit latency average = 12
	minimum = 12
	maximum = 12
Slowest flit = 1651516
Fragmentation average = 0
	minimum = 0
	maximum = 0
Injected packet rate average = 0.0005
	minimum = 0 (at node 0)
	maximum = 0.008 (at node 10)
Accepted packet rate average = 0.0005
	minimum = 0 (at node 0)
	maximum = 0.008 (at node 14)
Injected flit rate average = 0.0005
	minimum = 0 (at node 0)
	maximum = 0.008 (at node 10)
Accepted flit rate average= 0.0005
	minimum = 0 (at node 0)
	maximum = 0.008 (at node 14)
Injected packet length average = 1
Accepted packet length average = 1
Total in-flight flits = 0 (0 measured)
Class 17:
Packet latency average = 12.0329
	minimum = 12
	maximum = 13
Network latency average = 12.0016
	minimum = 12
	maximum = 13
Slowest packet = 1651517
Flit latency average = 12.0016
	minimum = 12
	maximum = 13
Slowest flit = 1652204
Fragmentation average = 0
	minimum = 0
	maximum = 0
Injected packet rate average = 0.0005
	minimum = 0 (at node 0)
	maximum = 0.008 (at node 11)
Accepted packet rate average = 0.0005
	minimum = 0 (at node 0)
	maximum = 0.008 (at node 7)
Injected flit rate average = 0.0005
	minimum = 0 (at node 0)
	maximum = 0.008 (at node 11)
Accepted flit rate average= 0.0005
	minimum = 0 (at node 0)
	maximum = 0.008 (at node 7)
Injected packet length average = 1
Accepted packet length average = 1
Total in-flight flits = 0 (0 measured)
Class 18:
Packet latency average = 12.0405
	minimum = 12
	maximum = 14
Network latency average = 12.0405
	minimum = 12
	maximum = 14
Slowest packet = 1652489
Flit latency average = 12.0405
	minimum = 12
	maximum = 14
Slowest flit = 1652489
Fragmentation average = 0
	minimum = 0
	maximum = 0
Injected packet rate average = 0.00195312
	minimum = 0 (at node 0)
	maximum = 0.03125 (at node 11)
Accepted packet rate average = 0.00195312
	minimum = 0 (at node 0)
	maximum = 0.03125 (at node 15)
Injected flit rate average = 0.00195312
	minimum = 0 (at node 0)
	maximum = 0.03125 (at node 11)
Accepted flit rate average= 0.00195312
	minimum = 0 (at node 0)
	maximum = 0.03125 (at node 15)
Injected packet length average = 1
Accepted packet length average = 1
Total in-flight flits = 0 (0 measured)
Class 19:
Packet latency average = 12.0625
	minimum = 12
	maximum = 13
Network latency average = 12.0625
	minimum = 12
	maximum = 13
Slowest packet = 1651519
Flit latency average = 12.0625
	minimum = 12
	maximum = 13
Slowest flit = 1651519
Fragmentation average = 0
	minimum = 0
	maximum = 0
[...]
	maximum = 0.001 (1 samples)
Accepted flit rate average = 6.25e-05 (1 samples)
	minimum = 0 (1 samples)
	maximum = 0.001 (1 samples)
Injected packet size average = 1 (1 samples)
Accepted packet size average = 1 (1 samples)
Hops average = 2 (1 samples)
====== Traffic class 5 ======
Packet latency average = 20 (1 samples)
	minimum = 20 (1 samples)
	maximum = 20 (1 samples)
Network latency average = 17 (1 samples)
	minimum = 17 (1 samples)
	maximum = 17 (1 samples)
Flit latency average = 17 (1 samples)
	minimum = 17 (1 samples)
	maximum = 17 (1 samples)
Fragmentation average = 0 (1 samples)
	minimum = 0 (1 samples)
	maximum = 0 (1 samples)
Injected packet rate average = 0.00390625 (1 samples)
	minimum = 0 (1 samples)
	maximum = 0.0625 (1 samples)
Accepted packet rate average = 0.00390625 (1 samples)
	minimum = 0 (1 samples)
	maximum = 0.0625 (1 samples)
Injected flit rate average = 0.00390625 (1 samples)
	minimum = 0 (1 samples)
	maximum = 0.0625 (1 samples)
Accepted flit rate average = 0.00390625 (1 samples)
	minimum = 0 (1 samples)
	maximum = 0.0625 (1 samples)
Injected packet size average = 1 (1 samples)
Accepted packet size average = 1 (1 samples)
Hops average = 3 (1 samples)
====== Traffic class 6 ======
Packet latency average = 26 (1 samples)
	minimum = 26 (1 samples)
	maximum = 26 (1 samples)
Network latency average = 22 (1 samples)
	minimum = 22 (1 samples)
	maximum = 22 (1 samples)
Flit latency average = 22 (1 samples)
	minimum = 22 (1 samples)
	maximum = 22 (1 samples)
Fragmentation average = 0 (1 samples)
	minimum = 0 (1 samples)
	maximum = 0 (1 samples)
Injected packet rate average = 0.00390625 (1 samples)
	minimum = 0 (1 samples)
	maximum = 0.0625 (1 samples)
Accepted packet rate average = 0.00390625 (1 samples)
	minimum = 0 (1 samples)
	maximum = 0.0625 (1 samples)
Injected flit rate average = 0.00390625 (1 samples)
	minimum = 0 (1 samples)
	maximum = 0.0625 (1 samples)
Accepted flit rate average = 0.00390625 (1 samples)
	minimum = 0 (1 samples)
	maximum = 0.0625 (1 samples)
Injected packet size average = 1 (1 samples)
Accepted packet size average = 1 (1 samples)
Hops average = 4 (1 samples)
====== Traffic class 7 ======
Packet latency average = 17 (1 samples)
	minimum = 17 (1 samples)
	maximum = 17 (1 samples)
Network latency average = 12 (1 samples)
	minimum = 12 (1 samples)
	maximum = 12 (1 samples)
Flit latency average = 12 (1 samples)
	minimum = 12 (1 samples)
	maximum = 12 (1 samples)
Fragmentation average = 0 (1 samples)
	minimum = 0 (1 samples)
	maximum = 0 (1 samples)
Injected packet rate average = 0.00390625 (1 samples)
	minimum = 0 (1 samples)
	maximum = 0.0625 (1 samples)
Accepted packet rate average = 0.00390625 (1 samples)
	minimum = 0 (1 samples)
	maximum = 0.0625 (1 samples)
Injected flit rate average = 0.00390625 (1 samples)
	minimum = 0 (1 samples)
	maximum = 0.0625 (1 samples)
Accepted flit rate average = 0.00390625 (1 samples)
	minimum = 0 (1 samples)
	maximum = 0.0625 (1 samples)
Injected packet size average = 1 (1 samples)
Accepted packet size average = 1 (1 samples)
Hops average = 2 (1 samples)
====== Traffic class 8 ======
Packet latency average = 12 (1 samples)
	minimum = 12 (1 samples)
	maximum = 12 (1 samples)
Network latency average = 12 (1 samples)
	minimum = 12 (1 samples)
	maximum = 12 (1 samples)
Flit latency average = 12 (1 samples)
	minimum = 12 (1 samples)
	maximum = 12 (1 samples)
Fragmentation average = 0 (1 samples)
	minimum = 0 (1 samples)
	maximum = 0 (1 samples)
Injected packet rate average = 0.00390625 (1 samples)
	minimum = 0 (1 samples)
	maximum = 0.0625 (1 samples)
Accepted packet rate average = 0.00390625 (1 samples)
	minimum = 0 (1 samples)
	maximum = 0.0625 (1 samples)
Injected flit rate average = 0.00390625 (1 samples)
	minimum = 0 (1 samples)
	maximum = 0.0625 (1 samples)
Accepted flit rate average = 0.00390625 (1 samples)
	minimum = 0 (1 samples)
	maximum = 0.0625 (1 samples)
Injected packet size average = 1 (1 samples)
Accepted packet size average = 1 (1 samples)
Hops average = 2 (1 samples)
====== Traffic class 9 ======
Packet latency average = 18 (1 samples)
	minimum = 18 (1 samples)
	maximum = 18 (1 samples)
Network latency average = 17 (1 samples)
	minimum = 17 (1 samples)
	maximum = 17 (1 samples)
Flit latency average = 17 (1 samples)
	minimum = 17 (1 samples)
	maximum = 17 (1 samples)
Fragmentation average = 0 (1 samples)
	minimum = 0 (1 samples)
	maximum = 0 (1 samples)
Injected packet rate average = 0.00390625 (1 samples)
	minimum = 0 (1 samples)
	maximum = 0.0625 (1 samples)
Accepted packet rate average = 0.00390625 (1 samples)
	minimum = 0 (1 samples)
	maximum = 0.0625 (1 samples)
Injected flit rate average = 0.00390625 (1 samples)
	minimum = 0 (1 samples)
	maximum = 0.0625 (1 samples)
Accepted flit rate average = 0.00390625 (1 samples)
	minimum = 0 (1 samples)
	maximum = 0.0625 (1 samples)
Injected packet size average = 1 (1 samples)
Accepted packet size average = 1 (1 samples)
Hops average = 3 (1 samples)
====== Traffic class 10 ======
Packet latency average = 24.0001 (1 samples)
	minimum = 24 (1 samples)
	maximum = 25 (1 samples)
Network latency average = 22.0001 (1 samples)
	minimum = 22 (1 samples)
	maximum = 23 (1 samples)
Flit latency average = 22.0001 (1 samples)
	minimum = 22 (1 samples)
	maximum = 23 (1 samples)
Fragmentation average = 0 (1 samples)
	minimum = 0 (1 samples)
	maximum = 0 (1 samples)
Injected packet rate average = 0.00390625 (1 samples)
	minimum = 0 (1 samples)
	maximum = 0.0625 (1 samples)
Accepted packet rate average = 0.00390625 (1 samples)
	minimum = 0 (1 samples)
	maximum = 0.0625 (1 samples)
Injected flit rate average = 0.00390625 (1 samples)
	minimum = 0 (1 samples)
	maximum = 0.0625 (1 samples)
Accepted flit rate average = 0.00390625 (1 samples)
	minimum = 0 (1 samples)
	maximum = 0.0625 (1 samples)
Injected packet size average = 1 (1 samples)
Accepted packet size average = 1 (1 samples)
Hops average = 4 (1 samples)
====== Traffic class 11 ======
Packet latency average = 12.126 (1 samples)
	minimum = 12 (1 samples)
	maximum = 13 (1 samples)
Network latency average = 12.126 (1 samples)
	minimum = 12 (1 samples)
	maximum = 13 (1 samples)
Flit latency average = 12.126 (1 samples)
	minimum = 12 (1 samples)
	maximum = 13 (1 samples)
Fragmentation average = 0 (1 samples)
	minimum = 0 (1 samples)
	maximum = 0 (1 samples)
Injected packet rate average = 0.0005 (1 samples)
	minimum = 0 (1 samples)
	maximum = 0.008 (1 samples)
Accepted packet rate average = 0.0005 (1 samples)
	minimum = 0 (1 samples)
	maximum = 0.008 (1 samples)
Injected flit rate average = 0.0005 (1 samples)
	minimum = 0 (1 samples)
	maximum = 0.008 (1 samples)
Accepted flit rate average = 0.0005 (1 samples)
	minimum = 0 (1 samples)
	maximum = 0.008 (1 samples)
Injected packet size average = 1 (1 samples)
Accepted packet size average = 1 (1 samples)
Hops average = 2 (1 samples)
====== Traffic class 12 ======
Packet latency average = 13.0625 (1 samples)
	minimum = 13 (1 samples)
	maximum = 14 (1 samples)
Network latency average = 12.0625 (1 samples)
	minimum = 12 (1 samples)
	maximum = 13 (1 samples)
Flit latency average = 12.0625 (1 samples)
	minimum = 12 (1 samples)
	maximum = 13 (1 samples)
Fragmentation average = 0 (1 samples)
	minimum = 0 (1 samples)
	maximum = 0 (1 samples)
Injected packet rate average = 0.0005 (1 samples)
	minimum = 0 (1 samples)
	maximum = 0.008 (1 samples)
Accepted packet rate average = 0.0005 (1 samples)
	minimum = 0 (1 samples)
	maximum = 0.008 (1 samples)
Injected flit rate average = 0.0005 (1 samples)
	minimum = 0 (1 samples)
	maximum = 0.008 (1 samples)
Accepted flit rate average = 0.0005 (1 samples)
	minimum = 0 (1 samples)
	maximum = 0.008 (1 samples)
Injected packet size average = 1 (1 samples)
Accepted packet size average = 1 (1 samples)
Hops average = 2 (1 samples)
====== Traffic class 13 ======
Packet latency average = 22.001 (1 samples)
	minimum = 22 (1 samples)
	maximum = 24 (1 samples)
Network latency average = 22.001 (1 samples)
	minimum = 22 (1 samples)
	maximum = 24 (1 samples)
Flit latency average = 22.001 (1 samples)
	minimum = 22 (1 samples)
	maximum = 24 (1 samples)
Fragmentation average = 0 (1 samples)
	minimum = 0 (1 samples)
	maximum = 0 (1 samples)
Injected packet rate average = 0.0005 (1 samples)
	minimum = 0 (1 samples)
	maximum = 0.008 (1 samples)
Accepted packet rate average = 0.0005 (1 samples)
	minimum = 0 (1 samples)
	maximum = 0.008 (1 samples)
Injected flit rate average = 0.0005 (1 samples)
	minimum = 0 (1 samples)
	maximum = 0.008 (1 samples)
Accepted flit rate average = 0.0005 (1 samples)
	minimum = 0 (1 samples)
	maximum = 0.008 (1 samples)
Injected packet size average = 1 (1 samples)
Accepted packet size average = 1 (1 samples)
Hops average = 4 (1 samples)
====== Traffic class 14 ======
Packet latency average = 12 (1 samples)
	minimum = 12 (1 samples)
	maximum = 12 (1 samples)
Network latency average = 12 (1 samples)
	minimum = 12 (1 samples)
	maximum = 12 (1 samples)
Flit latency average = 12 (1 samples)
	minimum = 12 (1 samples)
	maximum = 12 (1 samples)
Fragmentation average = 0 (1 samples)
	minimum = 0 (1 samples)
	maximum = 0 (1 samples)
Injected packet rate average = 0.0005 (1 samples)
	minimum = 0 (1 samples)
	maximum = 0.008 (1 samples)
Accepted packet rate average = 0.0005 (1 samples)
	minimum = 0 (1 samples)
	maximum = 0.008 (1 samples)
Injected flit rate average = 0.0005 (1 samples)
	minimum = 0 (1 samples)
	maximum = 0.008 (1 samples)
Accepted flit rate average = 0.0005 (1 samples)
	minimum = 0 (1 samples)
	maximum = 0.008 (1 samples)
Injected packet size average = 1 (1 samples)
Accepted packet size average = 1 (1 samples)
Hops average = 2 (1 samples)
====== Traffic class 15 ======
Packet latency average = 12 (1 samples)
	minimum = 12 (1 samples)
	maximum = 12 (1 samples)
Network latency average = 12 (1 samples)
	minimum = 12 (1 samples)
	maximum = 12 (1 samples)
Flit latency average = 12 (1 samples)
	minimum = 12 (1 samples)
	maximum = 12 (1 samples)
Fragmentation average = 0 (1 samples)
	minimum = 0 (1 samples)
	maximum = 0 (1 samples)
Injected packet rate average = 0.0005 (1 samples)
	minimum = 0 (1 samples)
	maximum = 0.008 (1 samples)
Accepted packet rate average = 0.0005 (1 samples)
	minimum = 0 (1 samples)
	maximum = 0.008 (1 samples)
Injected flit rate average = 0.0005 (1 samples)
	minimum = 0 (1 samples)
	maximum = 0.008 (1 samples)
Accepted flit rate average = 0.0005 (1 samples)
	minimum = 0 (1 samples)
	maximum = 0.008 (1 samples)
Injected packet size average = 1 (1 samples)
Accepted packet size average = 1 (1 samples)
Hops average = 2 (1 samples)
====== Traffic class 16 ======
Packet latency average = 12 (1 samples)
	minimum = 12 (1 samples)
	maximum = 12 (1 samples)
Network latency average = 12 (1 samples)
	minimum = 12 (1 samples)
	maximum = 12 (1 samples)
Flit latency average = 12 (1 samples)
	minimum = 12 (1 samples)
	maximum = 12 (1 samples)
Fragmentation average = 0 (1 samples)
	minimum = 0 (1 samples)
	maximum = 0 (1 samples)
Injected packet rate average = 0.0005 (1 samples)
	minimum = 0 (1 samples)
	maximum = 0.008 (1 samples)
Accepted packet rate average = 0.0005 (1 samples)
	minimum = 0 (1 samples)
	maximum = 0.008 (1 samples)
Injected flit rate average = 0.0005 (1 samples)
	minimum = 0 (1 samples)
	maximum = 0.008 (1 samples)
Accepted flit rate average = 0.0005 (1 samples)
	minimum = 0 (1 samples)
	maximum = 0.008 (1 samples)
Injected packet size average = 1 (1 samples)
Accepted packet size average = 1 (1 samples)
Hops average = 2 (1 samples)
====== Traffic class 17 ======
Packet latency average = 12.0328 (1 samples)
	minimum = 12 (1 samples)
	maximum = 13 (1 samples)
Network latency average = 12.0016 (1 samples)
	minimum = 12 (1 samples)
	maximum = 13 (1 samples)
Flit latency average = 12.0016 (1 samples)
	minimum = 12 (1 samples)
	maximum = 13 (1 samples)
Fragmentation average = 0 (1 samples)
	minimum = 0 (1 samples)
	maximum = 0 (1 samples)
Injected packet rate average = 0.0005 (1 samples)
	minimum = 0 (1 samples)
	maximum = 0.008 (1 samples)
Accepted packet rate average = 0.0005 (1 samples)
	minimum = 0 (1 samples)
	maximum = 0.008 (1 samples)
Injected flit rate average = 0.0005 (1 samples)
	minimum = 0 (1 samples)
	maximum = 0.008 (1 samples)
Accepted flit rate average = 0.0005 (1 samples)
	minimum = 0 (1 samples)
	maximum = 0.008 (1 samples)
Injected packet size average = 1 (1 samples)
Accepted packet size average = 1 (1 samples)
Hops average = 2 (1 samples)
====== Traffic class 18 ======
Packet latency average = 12.0406 (1 samples)
	minimum = 12 (1 samples)
	maximum = 14 (1 samples)
Network latency average = 12.0406 (1 samples)
	minimum = 12 (1 samples)
	maximum = 14 (1 samples)
Flit latency average = 12.0406 (1 samples)
	minimum = 12 (1 samples)
	maximum = 14 (1 samples)
Fragmentation average = 0 (1 samples)
	minimum = 0 (1 samples)
	maximum = 0 (1 samples)
Injected packet rate average = 0.00195312 (1 samples)
	minimum = 0 (1 samples)
	maximum = 0.03125 (1 samples)
Accepted packet rate average = 0.00195312 (1 samples)
	minimum = 0 (1 samples)
	maximum = 0.03125 (1 samples)
Injected flit rate average = 0.00195312 (1 samples)
	minimum = 0 (1 samples)
	maximum = 0.03125 (1 samples)
Accepted flit rate average = 0.00195312 (1 samples)
	minimum = 0 (1 samples)
	maximum = 0.03125 (1 samples)
Injected packet size average = 1 (1 samples)
Accepted packet size average = 1 (1 samples)
Hops average = 2 (1 samples)
====== Traffic class 19 ======
Packet latency average = 12.0625 (1 samples)
	minimum = 12 (1 samples)
	maximum = 13 (1 samples)
Network latency average = 12.0625 (1 samples)
	minimum = 12 (1 samples)
	maximum = 13 (1 samples)
Flit latency average = 12.0625 (1 samples)
	minimum = 12 (1 samples)
	maximum = 13 (1 samples)
Fragmentation average = 0 (1 samples)
	minimum = 0 (1 samples)
	maximum = 0 (1 samples)
Injected packet rate average = 0.0005 (1 samples)
	minimum = 0 (1 samples)
	maximum = 0.008 (1 samples)
Accepted packet rate average = 0.0005 (1 samples)
	minimum = 0 (1 samples)
	maximum = 0.008 (1 samples)
Injected flit rate average = 0.0005 (1 samples)
	minimum = 0 (1 samples)
	maximum = 0.008 (1 samples)
Accepted flit rate average = 0.0005 (1 samples)
	minimum = 0 (1 samples)
	maximum = 0.008 (1 samples)
Injected packet size average = 1 (1 samples)
Accepted packet size average = 1 (1 samples)
Hops average = 2 (1 samples)
====== Traffic class 20 ======
Packet latency average = 23 (1 samples)
	minimum = 23 (1 samples)
	maximum = 23 (1 samples)
Network latency average = 22 (1 samples)
	minimum = 22 (1 samples)
	maximum = 22 (1 samples)
Flit latency average = 22 (1 samples)
	minimum = 22 (1 samples)
	maximum = 22 (1 samples)
Fragmentation average = 0 (1 samples)
	minimum = 0 (1 samples)
	maximum = 0 (1 samples)
Injected packet rate average = 0.0005 (1 samples)
	minimum = 0 (1 samples)
	maximum = 0.008 (1 samples)
Accepted packet rate average = 0.0005 (1 samples)
	minimum = 0 (1 samples)
	maximum = 0.008 (1 samples)
Injected flit rate average = 0.0005 (1 samples)
	minimum = 0 (1 samples)
	maximum = 0.008 (1 samples)
Accepted flit rate average = 0.0005 (1 samples)
	minimum = 0 (1 samples)
	maximum = 0.008 (1 samples)
Injected packet size average = 1 (1 samples)
Accepted packet size average = 1 (1 samples)
Hops average = 4 (1 samples)
====== Traffic class 21 ======
Packet latency average = 12.0625 (1 samples)
	minimum = 12 (1 samples)
	maximum = 13 (1 samples)
Network latency average = 12.0625 (1 samples)
	minimum = 12 (1 samples)
	maximum = 13 (1 samples)
Flit latency average = 12.0625 (1 samples)
	minimum = 12 (1 samples)
	maximum = 13 (1 samples)
Fragmentation average = 0 (1 samples)
	minimum = 0 (1 samples)
	maximum = 0 (1 samples)
Injected packet rate average = 0.0005 (1 samples)
	minimum = 0 (1 samples)
	maximum = 0.008 (1 samples)
Accepted packet rate average = 0.0005 (1 samples)
	minimum = 0 (1 samples)
	maximum = 0.008 (1 samples)
Injected flit rate average = 0.0005 (1 samples)
	minimum = 0 (1 samples)
	maximum = 0.008 (1 samples)
Accepted flit rate average = 0.0005 (1 samples)
	minimum = 0 (1 samples)
	maximum = 0.008 (1 samples)
Injected packet size average = 1 (1 samples)
Accepted packet size average = 1 (1 samples)
Hops average = 2 (1 samples)
====== Traffic class 22 ======
Packet latency average = 18 (1 samples)
	minimum = 18 (1 samples)
	maximum = 18 (1 samples)
Network latency average = 17 (1 samples)
	minimum = 17 (1 samples)
	maximum = 17 (1 samples)
Flit latency average = 17 (1 samples)
	minimum = 17 (1 samples)
	maximum = 17 (1 samples)
Fragmentation average = 0 (1 samples)
	minimum = 0 (1 samples)
	maximum = 0 (1 samples)
Injected packet rate average = 0.0005 (1 samples)
	minimum = 0 (1 samples)
	maximum = 0.008 (1 samples)
Accepted packet rate average = 0.0005 (1 samples)
	minimum = 0 (1 samples)
	maximum = 0.008 (1 samples)
Injected flit rate average = 0.0005 (1 samples)
	minimum = 0 (1 samples)
	maximum = 0.008 (1 samples)
Accepted flit rate average = 0.0005 (1 samples)
	minimum = 0 (1 samples)
	maximum = 0.008 (1 samples)
Injected packet size average = 1 (1 samples)
Accepted packet size average = 1 (1 samples)
Hops average = 3 (1 samples)
====== Traffic class 23 ======
Packet latency average = 12.0625 (1 samples)
	minimum = 12 (1 samples)
	maximum = 13 (1 samples)
Network latency average = 12.0625 (1 samples)
	minimum = 12 (1 samples)
	maximum = 13 (1 samples)
Flit latency average = 12.0625 (1 samples)
	minimum = 12 (1 samples)
	maximum = 13 (1 samples)
Fragmentation average = 0 (1 samples)
	minimum = 0 (1 samples)
	maximum = 0 (1 samples)
Injected packet rate average = 0.0005 (1 samples)
	minimum = 0 (1 samples)
	maximum = 0.008 (1 samples)
Accepted packet rate average = 0.0005 (1 samples)
	minimum = 0 (1 samples)
	maximum = 0.008 (1 samples)
Injected flit rate average = 0.0005 (1 samples)
	minimum = 0 (1 samples)
	maximum = 0.008 (1 samples)
Accepted flit rate average = 0.0005 (1 samples)
	minimum = 0 (1 samples)
	maximum = 0.008 (1 samples)
Injected packet size average = 1 (1 samples)
Accepted packet size average = 1 (1 samples)
Hops average = 2 (1 samples)
====== Traffic class 24 ======
Packet latency average = 13 (1 samples)
	minimum = 13 (1 samples)
	maximum = 13 (1 samples)
Network latency average = 12 (1 samples)
	minimum = 12 (1 samples)
	maximum = 12 (1 samples)
Flit latency average = 12 (1 samples)
	minimum = 12 (1 samples)
	maximum = 12 (1 samples)
Fragmentation average = 0 (1 samples)
	minimum = 0 (1 samples)
	maximum = 0 (1 samples)
Injected packet rate average = 0.0005 (1 samples)
	minimum = 0 (1 samples)
	maximum = 0.008 (1 samples)
Accepted packet rate average = 0.0005 (1 samples)
	minimum = 0 (1 samples)
	maximum = 0.008 (1 samples)
Injected flit rate average = 0.0005 (1 samples)
	minimum = 0 (1 samples)
	maximum = 0.008 (1 samples)
Accepted flit rate average = 0.0005 (1 samples)
	minimum = 0 (1 samples)
	maximum = 0.008 (1 samples)
Injected packet size average = 1 (1 samples)
Accepted packet size average = 1 (1 samples)
Hops average = 2 (1 samples)
====== Traffic class 25 ======
Packet latency average = 12 (1 samples)
	minimum = 12 (1 samples)
	maximum = 12 (1 samples)
Network latency average = 12 (1 samples)
	minimum = 12 (1 samples)
	maximum = 12 (1 samples)
Flit latency average = 12 (1 samples)
	minimum = 12 (1 samples)
	maximum = 12 (1 samples)
Fragmentation average = 0 (1 samples)
	minimum = 0 (1 samples)
	maximum = 0 (1 samples)
Injected packet rate average = 0.00195312 (1 samples)
	minimum = 0 (1 samples)
	maximum = 0.03125 (1 samples)
Accepted packet rate average = 0.00195312 (1 samples)
	minimum = 0 (1 samples)
	maximum = 0.03125 (1 samples)
Injected flit rate average = 0.00195312 (1 samples)
	minimum = 0 (1 samples)
	maximum = 0.03125 (1 samples)
Accepted flit rate average = 0.00195312 (1 samples)
	minimum = 0 (1 samples)
	maximum = 0.03125 (1 samples)
Injected packet size average = 1 (1 samples)
Accepted packet size average = 1 (1 samples)
Hops average = 2 (1 samples)
Total run time 2217.11
